<routes>
        <vType id="typeStraight" accel="1" decel="4.5" sigma="0.5" length="5" minGap="2.5" maxSpeed="13.9" guiShape="passenger"/>
        <vType id="typeTurn" accel="1" decel="4.5" sigma="0.5" length="5" minGap="2.5" maxSpeed="13.9" guiShape="passenger"/>

        <route id="WE" edges="1i 2o" />
        <route id="EW" edges="2i 1o " />
        <route id="NS" edges="4i 3o " />
        <route id="SN" edges="3i 4o " />
        <route id="NE" edges="4i 2o" />
        <route id="ES" edges="2i 3o " />
        <route id="SW" edges="3i 1o " />
        <route id="WN" edges="1i 4o " />
    <vehicle id="NE_0" type="typeTurn" route="NE" depart="0" />
    <vehicle id="ES_1" type="typeTurn" route="ES" depart="0" />
    <vehicle id="NE_2" type="typeTurn" route="NE" depart="1" />
    <vehicle id="WE_3" type="typeStraight" route="WE" depart="1" />
    <vehicle id="WN_4" type="typeTurn" route="WN" depart="1" />
    <vehicle id="SW_5" type="typeTurn" route="SW" depart="2" />
    <vehicle id="ES_6" type="typeTurn" route="ES" depart="2" />
    <vehicle id="SN_7" type="typeStraight" route="SN" depart="3" />
    <vehicle id="SW_8" type="typeTurn" route="SW" depart="3" />
    <vehicle id="NE_9" type="typeTurn" route="NE" depart="5" />
    <vehicle id="WE_10" type="typeStraight" route="WE" depart="5" />
    <vehicle id="WN_11" type="typeTurn" route="WN" depart="5" />
    <vehicle id="EW_12" type="typeStraight" route="EW" depart="5" />
    <vehicle id="ES_13" type="typeTurn" route="ES" depart="5" />
    <vehicle id="WE_14" type="typeStraight" route="WE" depart="6" />
    <vehicle id="SW_15" type="typeTurn" route="SW" depart="8" />
    <vehicle id="WN_16" type="typeTurn" route="WN" depart="8" />
    <vehicle id="EW_17" type="typeStraight" route="EW" depart="8" />
    <vehicle id="EW_18" type="typeStraight" route="EW" depart="9" />
    <vehicle id="ES_19" type="typeTurn" route="ES" depart="9" />
    <vehicle id="WN_20" type="typeTurn" route="WN" depart="10" />
    <vehicle id="NS_21" type="typeStraight" route="NS" depart="11" />
    <vehicle id="NE_22" type="typeTurn" route="NE" depart="11" />
    <vehicle id="EW_23" type="typeStraight" route="EW" depart="11" />
    <vehicle id="WE_24" type="typeStraight" route="WE" depart="12" />
    <vehicle id="ES_25" type="typeTurn" route="ES" depart="13" />
    <vehicle id="WE_26" type="typeStraight" route="WE" depart="14" />
    <vehicle id="ES_27" type="typeTurn" route="ES" depart="14" />
    <vehicle id="WE_28" type="typeStraight" route="WE" depart="15" />
    <vehicle id="EW_29" type="typeStraight" route="EW" depart="15" />
    <vehicle id="SW_30" type="typeTurn" route="SW" depart="16" />
    <vehicle id="EW_31" type="typeStraight" route="EW" depart="16" />
    <vehicle id="NS_32" type="typeStraight" route="NS" depart="17" />
    <vehicle id="EW_33" type="typeStraight" route="EW" depart="17" />
    <vehicle id="WE_34" type="typeStraight" route="WE" depart="18" />
    <vehicle id="EW_35" type="typeStraight" route="EW" depart="19" />
    <vehicle id="ES_36" type="typeTurn" route="ES" depart="19" />
    <vehicle id="NS_37" type="typeStraight" route="NS" depart="20" />
    <vehicle id="WN_38" type="typeTurn" route="WN" depart="20" />
    <vehicle id="EW_39" type="typeStraight" route="EW" depart="20" />
    <vehicle id="ES_40" type="typeTurn" route="ES" depart="21" />
    <vehicle id="NS_41" type="typeStraight" route="NS" depart="22" />
    <vehicle id="ES_42" type="typeTurn" route="ES" depart="22" />
    <vehicle id="WE_43" type="typeStraight" route="WE" depart="23" />
    <vehicle id="ES_44" type="typeTurn" route="ES" depart="23" />
    <vehicle id="WN_45" type="typeTurn" route="WN" depart="24" />
    <vehicle id="WN_46" type="typeTurn" route="WN" depart="25" />
    <vehicle id="ES_47" type="typeTurn" route="ES" depart="25" />
    <vehicle id="NS_48" type="typeStraight" route="NS" depart="28" />
    <vehicle id="WE_49" type="typeStraight" route="WE" depart="28" />
    <vehicle id="EW_50" type="typeStraight" route="EW" depart="28" />
    <vehicle id="ES_51" type="typeTurn" route="ES" depart="28" />
    <vehicle id="WN_52" type="typeTurn" route="WN" depart="29" />
    <vehicle id="WE_53" type="typeStraight" route="WE" depart="30" />
    <vehicle id="EW_54" type="typeStraight" route="EW" depart="30" />
    <vehicle id="WE_55" type="typeStraight" route="WE" depart="31" />
    <vehicle id="NS_56" type="typeStraight" route="NS" depart="32" />
    <vehicle id="ES_57" type="typeTurn" route="ES" depart="32" />
    <vehicle id="WN_58" type="typeTurn" route="WN" depart="33" />
    <vehicle id="ES_59" type="typeTurn" route="ES" depart="33" />
    <vehicle id="WE_60" type="typeStraight" route="WE" depart="34" />
    <vehicle id="EW_61" type="typeStraight" route="EW" depart="34" />
    <vehicle id="ES_62" type="typeTurn" route="ES" depart="35" />
    <vehicle id="SN_63" type="typeStraight" route="SN" depart="36" />
    <vehicle id="WN_64" type="typeTurn" route="WN" depart="36" />
    <vehicle id="NE_65" type="typeTurn" route="NE" depart="37" />
    <vehicle id="SN_66" type="typeStraight" route="SN" depart="37" />
    <vehicle id="ES_67" type="typeTurn" route="ES" depart="38" />
    <vehicle id="EW_68" type="typeStraight" route="EW" depart="39" />
    <vehicle id="WE_69" type="typeStraight" route="WE" depart="40" />
    <vehicle id="WN_70" type="typeTurn" route="WN" depart="41" />
    <vehicle id="WN_71" type="typeTurn" route="WN" depart="42" />
    <vehicle id="EW_72" type="typeStraight" route="EW" depart="42" />
    <vehicle id="ES_73" type="typeTurn" route="ES" depart="42" />
    <vehicle id="WN_74" type="typeTurn" route="WN" depart="44" />
    <vehicle id="EW_75" type="typeStraight" route="EW" depart="44" />
    <vehicle id="EW_76" type="typeStraight" route="EW" depart="45" />
    <vehicle id="NS_77" type="typeStraight" route="NS" depart="46" />
    <vehicle id="ES_78" type="typeTurn" route="ES" depart="46" />
    <vehicle id="SN_79" type="typeStraight" route="SN" depart="49" />
    <vehicle id="WN_80" type="typeTurn" route="WN" depart="50" />
    <vehicle id="EW_81" type="typeStraight" route="EW" depart="50" />
    <vehicle id="WN_82" type="typeTurn" route="WN" depart="51" />
    <vehicle id="EW_83" type="typeStraight" route="EW" depart="51" />
    <vehicle id="ES_84" type="typeTurn" route="ES" depart="51" />
    <vehicle id="SW_85" type="typeTurn" route="SW" depart="52" />
    <vehicle id="EW_86" type="typeStraight" route="EW" depart="52" />
    <vehicle id="SW_87" type="typeTurn" route="SW" depart="53" />
    <vehicle id="EW_88" type="typeStraight" route="EW" depart="53" />
    <vehicle id="SW_89" type="typeTurn" route="SW" depart="54" />
    <vehicle id="WE_90" type="typeStraight" route="WE" depart="54" />
    <vehicle id="WN_91" type="typeTurn" route="WN" depart="56" />
    <vehicle id="EW_92" type="typeStraight" route="EW" depart="56" />
    <vehicle id="WE_93" type="typeStraight" route="WE" depart="57" />
    <vehicle id="WN_94" type="typeTurn" route="WN" depart="57" />
    <vehicle id="EW_95" type="typeStraight" route="EW" depart="57" />
    <vehicle id="WN_96" type="typeTurn" route="WN" depart="58" />
    <vehicle id="NE_97" type="typeTurn" route="NE" depart="60" />
    <vehicle id="WN_98" type="typeTurn" route="WN" depart="61" />
    <vehicle id="WN_99" type="typeTurn" route="WN" depart="62" />
    <vehicle id="NS_100" type="typeStraight" route="NS" depart="63" />
    <vehicle id="WE_101" type="typeStraight" route="WE" depart="63" />
    <vehicle id="EW_102" type="typeStraight" route="EW" depart="63" />
    <vehicle id="WE_103" type="typeStraight" route="WE" depart="64" />
    <vehicle id="WN_104" type="typeTurn" route="WN" depart="64" />
    <vehicle id="EW_105" type="typeStraight" route="EW" depart="64" />
    <vehicle id="ES_106" type="typeTurn" route="ES" depart="65" />
    <vehicle id="NS_107" type="typeStraight" route="NS" depart="66" />
    <vehicle id="WN_108" type="typeTurn" route="WN" depart="66" />
    <vehicle id="EW_109" type="typeStraight" route="EW" depart="67" />
    <vehicle id="ES_110" type="typeTurn" route="ES" depart="67" />
    <vehicle id="WN_111" type="typeTurn" route="WN" depart="68" />
    <vehicle id="WE_112" type="typeStraight" route="WE" depart="69" />
    <vehicle id="EW_113" type="typeStraight" route="EW" depart="70" />
    <vehicle id="EW_114" type="typeStraight" route="EW" depart="71" />
    <vehicle id="WE_115" type="typeStraight" route="WE" depart="72" />
    <vehicle id="ES_116" type="typeTurn" route="ES" depart="72" />
    <vehicle id="WN_117" type="typeTurn" route="WN" depart="73" />
    <vehicle id="ES_118" type="typeTurn" route="ES" depart="73" />
    <vehicle id="WN_119" type="typeTurn" route="WN" depart="74" />
    <vehicle id="EW_120" type="typeStraight" route="EW" depart="74" />
    <vehicle id="NS_121" type="typeStraight" route="NS" depart="75" />
    <vehicle id="NS_122" type="typeStraight" route="NS" depart="76" />
    <vehicle id="WE_123" type="typeStraight" route="WE" depart="77" />
    <vehicle id="WN_124" type="typeTurn" route="WN" depart="77" />
    <vehicle id="EW_125" type="typeStraight" route="EW" depart="77" />
    <vehicle id="ES_126" type="typeTurn" route="ES" depart="77" />
    <vehicle id="WE_127" type="typeStraight" route="WE" depart="79" />
    <vehicle id="WN_128" type="typeTurn" route="WN" depart="79" />
    <vehicle id="ES_129" type="typeTurn" route="ES" depart="79" />
    <vehicle id="SW_130" type="typeTurn" route="SW" depart="81" />
    <vehicle id="NS_131" type="typeStraight" route="NS" depart="82" />
    <vehicle id="SN_132" type="typeStraight" route="SN" depart="82" />
    <vehicle id="ES_133" type="typeTurn" route="ES" depart="82" />
    <vehicle id="EW_134" type="typeStraight" route="EW" depart="84" />
    <vehicle id="ES_135" type="typeTurn" route="ES" depart="84" />
    <vehicle id="SW_136" type="typeTurn" route="SW" depart="85" />
    <vehicle id="WE_137" type="typeStraight" route="WE" depart="85" />
    <vehicle id="ES_138" type="typeTurn" route="ES" depart="85" />
    <vehicle id="ES_139" type="typeTurn" route="ES" depart="87" />
    <vehicle id="WE_140" type="typeStraight" route="WE" depart="88" />
    <vehicle id="WN_141" type="typeTurn" route="WN" depart="88" />
    <vehicle id="SW_142" type="typeTurn" route="SW" depart="89" />
    <vehicle id="WE_143" type="typeStraight" route="WE" depart="89" />
    <vehicle id="ES_144" type="typeTurn" route="ES" depart="89" />
    <vehicle id="NS_145" type="typeStraight" route="NS" depart="90" />
    <vehicle id="ES_146" type="typeTurn" route="ES" depart="90" />
    <vehicle id="NS_147" type="typeStraight" route="NS" depart="91" />
    <vehicle id="WN_148" type="typeTurn" route="WN" depart="91" />
    <vehicle id="NE_149" type="typeTurn" route="NE" depart="92" />
    <vehicle id="EW_150" type="typeStraight" route="EW" depart="94" />
    <vehicle id="WE_151" type="typeStraight" route="WE" depart="96" />
    <vehicle id="ES_152" type="typeTurn" route="ES" depart="96" />
    <vehicle id="WN_153" type="typeTurn" route="WN" depart="100" />
    <vehicle id="WE_154" type="typeStraight" route="WE" depart="101" />
    <vehicle id="ES_155" type="typeTurn" route="ES" depart="101" />
    <vehicle id="NE_156" type="typeTurn" route="NE" depart="102" />
    <vehicle id="SN_157" type="typeStraight" route="SN" depart="103" />
    <vehicle id="WN_158" type="typeTurn" route="WN" depart="104" />
    <vehicle id="SW_159" type="typeTurn" route="SW" depart="106" />
    <vehicle id="WE_160" type="typeStraight" route="WE" depart="106" />
    <vehicle id="SN_161" type="typeStraight" route="SN" depart="107" />
    <vehicle id="NS_162" type="typeStraight" route="NS" depart="108" />
    <vehicle id="WE_163" type="typeStraight" route="WE" depart="108" />
    <vehicle id="NE_164" type="typeTurn" route="NE" depart="109" />
    <vehicle id="WE_165" type="typeStraight" route="WE" depart="109" />
    <vehicle id="EW_166" type="typeStraight" route="EW" depart="109" />
    <vehicle id="SN_167" type="typeStraight" route="SN" depart="110" />
    <vehicle id="EW_168" type="typeStraight" route="EW" depart="110" />
    <vehicle id="WE_169" type="typeStraight" route="WE" depart="111" />
    <vehicle id="EW_170" type="typeStraight" route="EW" depart="111" />
    <vehicle id="WN_171" type="typeTurn" route="WN" depart="112" />
    <vehicle id="WE_172" type="typeStraight" route="WE" depart="113" />
    <vehicle id="NE_173" type="typeTurn" route="NE" depart="116" />
    <vehicle id="WE_174" type="typeStraight" route="WE" depart="116" />
    <vehicle id="WN_175" type="typeTurn" route="WN" depart="116" />
    <vehicle id="WE_176" type="typeStraight" route="WE" depart="119" />
    <vehicle id="WE_177" type="typeStraight" route="WE" depart="120" />
    <vehicle id="WN_178" type="typeTurn" route="WN" depart="120" />
    <vehicle id="EW_179" type="typeStraight" route="EW" depart="120" />
    <vehicle id="SW_180" type="typeTurn" route="SW" depart="121" />
    <vehicle id="WE_181" type="typeStraight" route="WE" depart="122" />
    <vehicle id="EW_182" type="typeStraight" route="EW" depart="122" />
    <vehicle id="WN_183" type="typeTurn" route="WN" depart="123" />
    <vehicle id="ES_184" type="typeTurn" route="ES" depart="123" />
    <vehicle id="SW_185" type="typeTurn" route="SW" depart="124" />
    <vehicle id="NS_186" type="typeStraight" route="NS" depart="125" />
    <vehicle id="EW_187" type="typeStraight" route="EW" depart="125" />
    <vehicle id="ES_188" type="typeTurn" route="ES" depart="125" />
    <vehicle id="WN_189" type="typeTurn" route="WN" depart="126" />
    <vehicle id="ES_190" type="typeTurn" route="ES" depart="126" />
    <vehicle id="SN_191" type="typeStraight" route="SN" depart="127" />
    <vehicle id="WE_192" type="typeStraight" route="WE" depart="127" />
    <vehicle id="WN_193" type="typeTurn" route="WN" depart="127" />
    <vehicle id="SN_194" type="typeStraight" route="SN" depart="128" />
    <vehicle id="WE_195" type="typeStraight" route="WE" depart="128" />
    <vehicle id="WN_196" type="typeTurn" route="WN" depart="128" />
    <vehicle id="EW_197" type="typeStraight" route="EW" depart="128" />
    <vehicle id="ES_198" type="typeTurn" route="ES" depart="128" />
    <vehicle id="NE_199" type="typeTurn" route="NE" depart="129" />
    <vehicle id="SN_200" type="typeStraight" route="SN" depart="129" />
    <vehicle id="WE_201" type="typeStraight" route="WE" depart="129" />
    <vehicle id="EW_202" type="typeStraight" route="EW" depart="129" />
    <vehicle id="ES_203" type="typeTurn" route="ES" depart="129" />
    <vehicle id="EW_204" type="typeStraight" route="EW" depart="130" />
    <vehicle id="NE_205" type="typeTurn" route="NE" depart="131" />
    <vehicle id="ES_206" type="typeTurn" route="ES" depart="131" />
    <vehicle id="WN_207" type="typeTurn" route="WN" depart="132" />
    <vehicle id="EW_208" type="typeStraight" route="EW" depart="132" />
    <vehicle id="NS_209" type="typeStraight" route="NS" depart="133" />
    <vehicle id="NE_210" type="typeTurn" route="NE" depart="134" />
    <vehicle id="ES_211" type="typeTurn" route="ES" depart="134" />
    <vehicle id="WN_212" type="typeTurn" route="WN" depart="135" />
    <vehicle id="SW_213" type="typeTurn" route="SW" depart="136" />
    <vehicle id="WN_214" type="typeTurn" route="WN" depart="136" />
    <vehicle id="EW_215" type="typeStraight" route="EW" depart="136" />
    <vehicle id="WN_216" type="typeTurn" route="WN" depart="137" />
    <vehicle id="ES_217" type="typeTurn" route="ES" depart="138" />
    <vehicle id="WN_218" type="typeTurn" route="WN" depart="140" />
    <vehicle id="WN_219" type="typeTurn" route="WN" depart="141" />
    <vehicle id="SW_220" type="typeTurn" route="SW" depart="142" />
    <vehicle id="WN_221" type="typeTurn" route="WN" depart="142" />
    <vehicle id="WE_222" type="typeStraight" route="WE" depart="143" />
    <vehicle id="WN_223" type="typeTurn" route="WN" depart="143" />
    <vehicle id="EW_224" type="typeStraight" route="EW" depart="143" />
    <vehicle id="WN_225" type="typeTurn" route="WN" depart="144" />
    <vehicle id="ES_226" type="typeTurn" route="ES" depart="144" />
    <vehicle id="WN_227" type="typeTurn" route="WN" depart="145" />
    <vehicle id="NS_228" type="typeStraight" route="NS" depart="146" />
    <vehicle id="WE_229" type="typeStraight" route="WE" depart="146" />
    <vehicle id="EW_230" type="typeStraight" route="EW" depart="146" />
    <vehicle id="EW_231" type="typeStraight" route="EW" depart="147" />
    <vehicle id="NS_232" type="typeStraight" route="NS" depart="148" />
    <vehicle id="NE_233" type="typeTurn" route="NE" depart="148" />
    <vehicle id="NE_234" type="typeTurn" route="NE" depart="149" />
    <vehicle id="ES_235" type="typeTurn" route="ES" depart="149" />
    <vehicle id="ES_236" type="typeTurn" route="ES" depart="152" />
    <vehicle id="WE_237" type="typeStraight" route="WE" depart="154" />
    <vehicle id="ES_238" type="typeTurn" route="ES" depart="154" />
    <vehicle id="NS_239" type="typeStraight" route="NS" depart="155" />
    <vehicle id="WE_240" type="typeStraight" route="WE" depart="155" />
    <vehicle id="EW_241" type="typeStraight" route="EW" depart="155" />
    <vehicle id="WE_242" type="typeStraight" route="WE" depart="157" />
    <vehicle id="WN_243" type="typeTurn" route="WN" depart="157" />
    <vehicle id="EW_244" type="typeStraight" route="EW" depart="157" />
    <vehicle id="WE_245" type="typeStraight" route="WE" depart="158" />
    <vehicle id="NS_246" type="typeStraight" route="NS" depart="160" />
    <vehicle id="NE_247" type="typeTurn" route="NE" depart="160" />
    <vehicle id="EW_248" type="typeStraight" route="EW" depart="163" />
    <vehicle id="ES_249" type="typeTurn" route="ES" depart="163" />
    <vehicle id="WE_250" type="typeStraight" route="WE" depart="164" />
    <vehicle id="EW_251" type="typeStraight" route="EW" depart="164" />
    <vehicle id="SN_252" type="typeStraight" route="SN" depart="165" />
    <vehicle id="WN_253" type="typeTurn" route="WN" depart="165" />
    <vehicle id="ES_254" type="typeTurn" route="ES" depart="165" />
    <vehicle id="ES_255" type="typeTurn" route="ES" depart="166" />
    <vehicle id="WN_256" type="typeTurn" route="WN" depart="168" />
    <vehicle id="WE_257" type="typeStraight" route="WE" depart="169" />
    <vehicle id="WN_258" type="typeTurn" route="WN" depart="170" />
    <vehicle id="ES_259" type="typeTurn" route="ES" depart="170" />
    <vehicle id="WN_260" type="typeTurn" route="WN" depart="171" />
    <vehicle id="EW_261" type="typeStraight" route="EW" depart="171" />
    <vehicle id="SW_262" type="typeTurn" route="SW" depart="172" />
    <vehicle id="WE_263" type="typeStraight" route="WE" depart="173" />
    <vehicle id="ES_264" type="typeTurn" route="ES" depart="173" />
    <vehicle id="NS_265" type="typeStraight" route="NS" depart="174" />
    <vehicle id="EW_266" type="typeStraight" route="EW" depart="174" />
    <vehicle id="ES_267" type="typeTurn" route="ES" depart="174" />
    <vehicle id="NE_268" type="typeTurn" route="NE" depart="175" />
    <vehicle id="WN_269" type="typeTurn" route="WN" depart="175" />
    <vehicle id="NS_270" type="typeStraight" route="NS" depart="176" />
    <vehicle id="EW_271" type="typeStraight" route="EW" depart="176" />
    <vehicle id="NE_272" type="typeTurn" route="NE" depart="177" />
    <vehicle id="SW_273" type="typeTurn" route="SW" depart="177" />
    <vehicle id="WE_274" type="typeStraight" route="WE" depart="178" />
    <vehicle id="WN_275" type="typeTurn" route="WN" depart="178" />
    <vehicle id="WN_276" type="typeTurn" route="WN" depart="179" />
    <vehicle id="EW_277" type="typeStraight" route="EW" depart="180" />
    <vehicle id="SN_278" type="typeStraight" route="SN" depart="181" />
    <vehicle id="WE_279" type="typeStraight" route="WE" depart="181" />
    <vehicle id="WN_280" type="typeTurn" route="WN" depart="184" />
    <vehicle id="SN_281" type="typeStraight" route="SN" depart="185" />
    <vehicle id="NE_282" type="typeTurn" route="NE" depart="186" />
    <vehicle id="WN_283" type="typeTurn" route="WN" depart="186" />
    <vehicle id="NS_284" type="typeStraight" route="NS" depart="187" />
    <vehicle id="EW_285" type="typeStraight" route="EW" depart="187" />
    <vehicle id="NE_286" type="typeTurn" route="NE" depart="188" />
    <vehicle id="SN_287" type="typeStraight" route="SN" depart="188" />
    <vehicle id="EW_288" type="typeStraight" route="EW" depart="190" />
    <vehicle id="ES_289" type="typeTurn" route="ES" depart="190" />
    <vehicle id="WN_290" type="typeTurn" route="WN" depart="191" />
    <vehicle id="SN_291" type="typeStraight" route="SN" depart="192" />
    <vehicle id="ES_292" type="typeTurn" route="ES" depart="192" />
    <vehicle id="WE_293" type="typeStraight" route="WE" depart="194" />
    <vehicle id="SN_294" type="typeStraight" route="SN" depart="195" />
    <vehicle id="NE_295" type="typeTurn" route="NE" depart="196" />
    <vehicle id="EW_296" type="typeStraight" route="EW" depart="197" />
    <vehicle id="ES_297" type="typeTurn" route="ES" depart="197" />
    <vehicle id="ES_298" type="typeTurn" route="ES" depart="199" />
    <vehicle id="NS_299" type="typeStraight" route="NS" depart="201" />
    <vehicle id="NE_300" type="typeTurn" route="NE" depart="201" />
    <vehicle id="ES_301" type="typeTurn" route="ES" depart="202" />
    <vehicle id="NS_302" type="typeStraight" route="NS" depart="203" />
    <vehicle id="NE_303" type="typeTurn" route="NE" depart="203" />
    <vehicle id="WE_304" type="typeStraight" route="WE" depart="203" />
    <vehicle id="SN_305" type="typeStraight" route="SN" depart="205" />
    <vehicle id="EW_306" type="typeStraight" route="EW" depart="205" />
    <vehicle id="NE_307" type="typeTurn" route="NE" depart="207" />
    <vehicle id="WN_308" type="typeTurn" route="WN" depart="207" />
    <vehicle id="ES_309" type="typeTurn" route="ES" depart="207" />
    <vehicle id="WN_310" type="typeTurn" route="WN" depart="209" />
    <vehicle id="ES_311" type="typeTurn" route="ES" depart="209" />
    <vehicle id="WN_312" type="typeTurn" route="WN" depart="210" />
    <vehicle id="WE_313" type="typeStraight" route="WE" depart="211" />
    <vehicle id="ES_314" type="typeTurn" route="ES" depart="211" />
    <vehicle id="NE_315" type="typeTurn" route="NE" depart="215" />
    <vehicle id="WN_316" type="typeTurn" route="WN" depart="216" />
    <vehicle id="ES_317" type="typeTurn" route="ES" depart="216" />
    <vehicle id="SN_318" type="typeStraight" route="SN" depart="217" />
    <vehicle id="WE_319" type="typeStraight" route="WE" depart="217" />
    <vehicle id="SW_320" type="typeTurn" route="SW" depart="218" />
    <vehicle id="WE_321" type="typeStraight" route="WE" depart="218" />
    <vehicle id="WN_322" type="typeTurn" route="WN" depart="218" />
    <vehicle id="WE_323" type="typeStraight" route="WE" depart="220" />
    <vehicle id="EW_324" type="typeStraight" route="EW" depart="220" />
    <vehicle id="WN_325" type="typeTurn" route="WN" depart="223" />
    <vehicle id="ES_326" type="typeTurn" route="ES" depart="223" />
    <vehicle id="EW_327" type="typeStraight" route="EW" depart="224" />
    <vehicle id="SN_328" type="typeStraight" route="SN" depart="225" />
    <vehicle id="WN_329" type="typeTurn" route="WN" depart="225" />
    <vehicle id="ES_330" type="typeTurn" route="ES" depart="225" />
    <vehicle id="EW_331" type="typeStraight" route="EW" depart="226" />
    <vehicle id="SW_332" type="typeTurn" route="SW" depart="227" />
    <vehicle id="WE_333" type="typeStraight" route="WE" depart="229" />
    <vehicle id="EW_334" type="typeStraight" route="EW" depart="229" />
    <vehicle id="ES_335" type="typeTurn" route="ES" depart="230" />
    <vehicle id="WE_336" type="typeStraight" route="WE" depart="231" />
    <vehicle id="EW_337" type="typeStraight" route="EW" depart="232" />
    <vehicle id="WE_338" type="typeStraight" route="WE" depart="233" />
    <vehicle id="WN_339" type="typeTurn" route="WN" depart="233" />
    <vehicle id="SN_340" type="typeStraight" route="SN" depart="234" />
    <vehicle id="WN_341" type="typeTurn" route="WN" depart="234" />
    <vehicle id="EW_342" type="typeStraight" route="EW" depart="234" />
    <vehicle id="WN_343" type="typeTurn" route="WN" depart="235" />
    <vehicle id="ES_344" type="typeTurn" route="ES" depart="235" />
    <vehicle id="WE_345" type="typeStraight" route="WE" depart="237" />
    <vehicle id="ES_346" type="typeTurn" route="ES" depart="237" />
    <vehicle id="SN_347" type="typeStraight" route="SN" depart="238" />
    <vehicle id="WE_348" type="typeStraight" route="WE" depart="238" />
    <vehicle id="WE_349" type="typeStraight" route="WE" depart="239" />
    <vehicle id="EW_350" type="typeStraight" route="EW" depart="239" />
    <vehicle id="WE_351" type="typeStraight" route="WE" depart="240" />
    <vehicle id="WE_352" type="typeStraight" route="WE" depart="241" />
    <vehicle id="EW_353" type="typeStraight" route="EW" depart="241" />
    <vehicle id="NE_354" type="typeTurn" route="NE" depart="242" />
    <vehicle id="SW_355" type="typeTurn" route="SW" depart="242" />
    <vehicle id="WE_356" type="typeStraight" route="WE" depart="244" />
    <vehicle id="NE_357" type="typeTurn" route="NE" depart="245" />
    <vehicle id="SN_358" type="typeStraight" route="SN" depart="245" />
    <vehicle id="WN_359" type="typeTurn" route="WN" depart="246" />
    <vehicle id="SN_360" type="typeStraight" route="SN" depart="247" />
    <vehicle id="WE_361" type="typeStraight" route="WE" depart="247" />
    <vehicle id="WN_362" type="typeTurn" route="WN" depart="247" />
    <vehicle id="NS_363" type="typeStraight" route="NS" depart="248" />
    <vehicle id="WE_364" type="typeStraight" route="WE" depart="248" />
    <vehicle id="EW_365" type="typeStraight" route="EW" depart="248" />
    <vehicle id="WE_366" type="typeStraight" route="WE" depart="250" />
    <vehicle id="WN_367" type="typeTurn" route="WN" depart="253" />
    <vehicle id="EW_368" type="typeStraight" route="EW" depart="253" />
    <vehicle id="ES_369" type="typeTurn" route="ES" depart="253" />
    <vehicle id="SW_370" type="typeTurn" route="SW" depart="254" />
    <vehicle id="WN_371" type="typeTurn" route="WN" depart="254" />
    <vehicle id="EW_372" type="typeStraight" route="EW" depart="254" />
    <vehicle id="SN_373" type="typeStraight" route="SN" depart="256" />
    <vehicle id="WN_374" type="typeTurn" route="WN" depart="256" />
    <vehicle id="WE_375" type="typeStraight" route="WE" depart="258" />
    <vehicle id="WE_376" type="typeStraight" route="WE" depart="259" />
    <vehicle id="WN_377" type="typeTurn" route="WN" depart="259" />
    <vehicle id="EW_378" type="typeStraight" route="EW" depart="259" />
    <vehicle id="EW_379" type="typeStraight" route="EW" depart="261" />
    <vehicle id="EW_380" type="typeStraight" route="EW" depart="262" />
    <vehicle id="ES_381" type="typeTurn" route="ES" depart="262" />
    <vehicle id="EW_382" type="typeStraight" route="EW" depart="263" />
    <vehicle id="NS_383" type="typeStraight" route="NS" depart="264" />
    <vehicle id="NS_384" type="typeStraight" route="NS" depart="265" />
    <vehicle id="SN_385" type="typeStraight" route="SN" depart="265" />
    <vehicle id="WE_386" type="typeStraight" route="WE" depart="265" />
    <vehicle id="EW_387" type="typeStraight" route="EW" depart="265" />
    <vehicle id="WE_388" type="typeStraight" route="WE" depart="266" />
    <vehicle id="WN_389" type="typeTurn" route="WN" depart="266" />
    <vehicle id="EW_390" type="typeStraight" route="EW" depart="266" />
    <vehicle id="ES_391" type="typeTurn" route="ES" depart="267" />
    <vehicle id="WN_392" type="typeTurn" route="WN" depart="268" />
    <vehicle id="NS_393" type="typeStraight" route="NS" depart="269" />
    <vehicle id="NE_394" type="typeTurn" route="NE" depart="269" />
    <vehicle id="NS_395" type="typeStraight" route="NS" depart="270" />
    <vehicle id="SN_396" type="typeStraight" route="SN" depart="270" />
    <vehicle id="ES_397" type="typeTurn" route="ES" depart="270" />
    <vehicle id="NS_398" type="typeStraight" route="NS" depart="271" />
    <vehicle id="WE_399" type="typeStraight" route="WE" depart="271" />
    <vehicle id="WE_400" type="typeStraight" route="WE" depart="272" />
    <vehicle id="WN_401" type="typeTurn" route="WN" depart="272" />
    <vehicle id="EW_402" type="typeStraight" route="EW" depart="272" />
    <vehicle id="WE_403" type="typeStraight" route="WE" depart="273" />
    <vehicle id="NE_404" type="typeTurn" route="NE" depart="274" />
    <vehicle id="NE_405" type="typeTurn" route="NE" depart="275" />
    <vehicle id="SN_406" type="typeStraight" route="SN" depart="276" />
    <vehicle id="EW_407" type="typeStraight" route="EW" depart="276" />
    <vehicle id="ES_408" type="typeTurn" route="ES" depart="276" />
    <vehicle id="WE_409" type="typeStraight" route="WE" depart="277" />
    <vehicle id="WN_410" type="typeTurn" route="WN" depart="277" />
    <vehicle id="EW_411" type="typeStraight" route="EW" depart="278" />
    <vehicle id="NS_412" type="typeStraight" route="NS" depart="279" />
    <vehicle id="WE_413" type="typeStraight" route="WE" depart="279" />
    <vehicle id="EW_414" type="typeStraight" route="EW" depart="279" />
    <vehicle id="WN_415" type="typeTurn" route="WN" depart="280" />
    <vehicle id="NS_416" type="typeStraight" route="NS" depart="281" />
    <vehicle id="WE_417" type="typeStraight" route="WE" depart="281" />
    <vehicle id="WN_418" type="typeTurn" route="WN" depart="281" />
    <vehicle id="EW_419" type="typeStraight" route="EW" depart="281" />
    <vehicle id="WN_420" type="typeTurn" route="WN" depart="283" />
    <vehicle id="WE_421" type="typeStraight" route="WE" depart="284" />
    <vehicle id="WE_422" type="typeStraight" route="WE" depart="285" />