<routes>
        <vType id="typeStraight" accel="1" decel="4.5" sigma="0.5" length="5" minGap="2.5" maxSpeed="13.9" guiShape="passenger"/>
        <vType id="typeTurn" accel="1" decel="4.5" sigma="0.5" length="5" minGap="2.5" maxSpeed="13.9" guiShape="passenger"/>

        <route id="WE" edges="1i 2o" />
        <route id="EW" edges="2i 1o " />
        <route id="NS" edges="4i 3o " />
        <route id="SN" edges="3i 4o " />
        <route id="NE" edges="4i 2o" />
        <route id="ES" edges="2i 3o " />
        <route id="SW" edges="3i 1o " />
        <route id="WN" edges="1i 4o " />
    <vehicle id="EW_0" type="typeStraight" route="EW" depart="0" />
    <vehicle id="NS_1" type="typeStraight" route="NS" depart="0" />
    <vehicle id="SN_2" type="typeStraight" route="SN" depart="0" />
    <vehicle id="WN_3" type="typeTurn" route="WN" depart="0" />
    <vehicle id="EW_4" type="typeStraight" route="EW" depart="1" />
    <vehicle id="NS_5" type="typeStraight" route="NS" depart="1" />
    <vehicle id="NE_6" type="typeTurn" route="NE" depart="1" />
    <vehicle id="WE_7" type="typeStraight" route="WE" depart="2" />
    <vehicle id="SN_8" type="typeStraight" route="SN" depart="2" />
    <vehicle id="NS_9" type="typeStraight" route="NS" depart="3" />
    <vehicle id="SN_10" type="typeStraight" route="SN" depart="3" />
    <vehicle id="EW_11" type="typeStraight" route="EW" depart="5" />
    <vehicle id="NS_12" type="typeStraight" route="NS" depart="5" />
    <vehicle id="SN_13" type="typeStraight" route="SN" depart="5" />
    <vehicle id="NE_14" type="typeTurn" route="NE" depart="5" />
    <vehicle id="SN_15" type="typeStraight" route="SN" depart="6" />
    <vehicle id="WE_16" type="typeStraight" route="WE" depart="7" />
    <vehicle id="NS_17" type="typeStraight" route="NS" depart="7" />
    <vehicle id="NS_18" type="typeStraight" route="NS" depart="8" />
    <vehicle id="SN_19" type="typeStraight" route="SN" depart="8" />
    <vehicle id="EW_20" type="typeStraight" route="EW" depart="10" />
    <vehicle id="WE_21" type="typeStraight" route="WE" depart="11" />
    <vehicle id="EW_22" type="typeStraight" route="EW" depart="11" />
    <vehicle id="NS_23" type="typeStraight" route="NS" depart="11" />
    <vehicle id="SW_24" type="typeTurn" route="SW" depart="11" />
    <vehicle id="NE_25" type="typeTurn" route="NE" depart="12" />
    <vehicle id="WE_26" type="typeStraight" route="WE" depart="13" />
    <vehicle id="NS_27" type="typeStraight" route="NS" depart="13" />
    <vehicle id="EW_28" type="typeStraight" route="EW" depart="14" />
    <vehicle id="NE_29" type="typeTurn" route="NE" depart="15" />
    <vehicle id="SW_30" type="typeTurn" route="SW" depart="15" />
    <vehicle id="SN_31" type="typeStraight" route="SN" depart="16" />
    <vehicle id="SW_32" type="typeTurn" route="SW" depart="16" />
    <vehicle id="WE_33" type="typeStraight" route="WE" depart="17" />
    <vehicle id="SN_34" type="typeStraight" route="SN" depart="17" />
    <vehicle id="EW_35" type="typeStraight" route="EW" depart="18" />
    <vehicle id="NS_36" type="typeStraight" route="NS" depart="19" />
    <vehicle id="SN_37" type="typeStraight" route="SN" depart="19" />
    <vehicle id="WE_38" type="typeStraight" route="WE" depart="20" />
    <vehicle id="NS_39" type="typeStraight" route="NS" depart="20" />
    <vehicle id="ES_40" type="typeTurn" route="ES" depart="20" />
    <vehicle id="WE_41" type="typeStraight" route="WE" depart="21" />
    <vehicle id="EW_42" type="typeStraight" route="EW" depart="21" />
    <vehicle id="WE_43" type="typeStraight" route="WE" depart="22" />
    <vehicle id="WN_44" type="typeTurn" route="WN" depart="22" />
    <vehicle id="SN_45" type="typeStraight" route="SN" depart="23" />
    <vehicle id="WE_46" type="typeStraight" route="WE" depart="24" />
    <vehicle id="ES_47" type="typeTurn" route="ES" depart="24" />
    <vehicle id="SN_48" type="typeStraight" route="SN" depart="25" />
    <vehicle id="WN_49" type="typeTurn" route="WN" depart="25" />
    <vehicle id="NS_50" type="typeStraight" route="NS" depart="26" />
    <vehicle id="NS_51" type="typeStraight" route="NS" depart="27" />
    <vehicle id="SN_52" type="typeStraight" route="SN" depart="27" />
    <vehicle id="WE_53" type="typeStraight" route="WE" depart="28" />
    <vehicle id="SW_54" type="typeTurn" route="SW" depart="28" />
    <vehicle id="NS_55" type="typeStraight" route="NS" depart="29" />
    <vehicle id="SN_56" type="typeStraight" route="SN" depart="29" />
    <vehicle id="EW_57" type="typeStraight" route="EW" depart="31" />
    <vehicle id="NE_58" type="typeTurn" route="NE" depart="31" />
    <vehicle id="WE_59" type="typeStraight" route="WE" depart="32" />
    <vehicle id="EW_60" type="typeStraight" route="EW" depart="32" />
    <vehicle id="NS_61" type="typeStraight" route="NS" depart="32" />
    <vehicle id="ES_62" type="typeTurn" route="ES" depart="33" />
    <vehicle id="NS_63" type="typeStraight" route="NS" depart="34" />
    <vehicle id="SN_64" type="typeStraight" route="SN" depart="34" />
    <vehicle id="EW_65" type="typeStraight" route="EW" depart="35" />
    <vehicle id="SN_66" type="typeStraight" route="SN" depart="35" />
    <vehicle id="WN_67" type="typeTurn" route="WN" depart="35" />
    <vehicle id="EW_68" type="typeStraight" route="EW" depart="36" />
    <vehicle id="NS_69" type="typeStraight" route="NS" depart="36" />
    <vehicle id="EW_70" type="typeStraight" route="EW" depart="37" />
    <vehicle id="NS_71" type="typeStraight" route="NS" depart="37" />
    <vehicle id="WE_72" type="typeStraight" route="WE" depart="38" />
    <vehicle id="EW_73" type="typeStraight" route="EW" depart="38" />
    <vehicle id="WE_74" type="typeStraight" route="WE" depart="39" />
    <vehicle id="EW_75" type="typeStraight" route="EW" depart="39" />
    <vehicle id="NE_76" type="typeTurn" route="NE" depart="40" />
    <vehicle id="SN_77" type="typeStraight" route="SN" depart="41" />
    <vehicle id="WE_78" type="typeStraight" route="WE" depart="42" />
    <vehicle id="SW_79" type="typeTurn" route="SW" depart="42" />
    <vehicle id="SN_80" type="typeStraight" route="SN" depart="43" />
    <vehicle id="EW_81" type="typeStraight" route="EW" depart="44" />
    <vehicle id="SN_82" type="typeStraight" route="SN" depart="44" />
    <vehicle id="WE_83" type="typeStraight" route="WE" depart="46" />
    <vehicle id="WN_84" type="typeTurn" route="WN" depart="46" />
    <vehicle id="EW_85" type="typeStraight" route="EW" depart="48" />
    <vehicle id="NS_86" type="typeStraight" route="NS" depart="48" />
    <vehicle id="NS_87" type="typeStraight" route="NS" depart="49" />
    <vehicle id="SN_88" type="typeStraight" route="SN" depart="49" />
    <vehicle id="EW_89" type="typeStraight" route="EW" depart="50" />
    <vehicle id="SW_90" type="typeTurn" route="SW" depart="50" />
    <vehicle id="WN_91" type="typeTurn" route="WN" depart="51" />
    <vehicle id="WE_92" type="typeStraight" route="WE" depart="52" />
    <vehicle id="SN_93" type="typeStraight" route="SN" depart="52" />
    <vehicle id="EW_94" type="typeStraight" route="EW" depart="53" />
    <vehicle id="SN_95" type="typeStraight" route="SN" depart="53" />
    <vehicle id="WE_96" type="typeStraight" route="WE" depart="54" />
    <vehicle id="SN_97" type="typeStraight" route="SN" depart="54" />
    <vehicle id="SN_98" type="typeStraight" route="SN" depart="57" />
    <vehicle id="NE_99" type="typeTurn" route="NE" depart="57" />
    <vehicle id="EW_100" type="typeStraight" route="EW" depart="58" />
    <vehicle id="NS_101" type="typeStraight" route="NS" depart="58" />
    <vehicle id="ES_102" type="typeTurn" route="ES" depart="58" />
    <vehicle id="EW_103" type="typeStraight" route="EW" depart="59" />
    <vehicle id="EW_104" type="typeStraight" route="EW" depart="60" />
    <vehicle id="NS_105" type="typeStraight" route="NS" depart="61" />
    <vehicle id="SN_106" type="typeStraight" route="SN" depart="61" />
    <vehicle id="ES_107" type="typeTurn" route="ES" depart="61" />
    <vehicle id="EW_108" type="typeStraight" route="EW" depart="62" />
    <vehicle id="SN_109" type="typeStraight" route="SN" depart="62" />
    <vehicle id="ES_110" type="typeTurn" route="ES" depart="62" />
    <vehicle id="WE_111" type="typeStraight" route="WE" depart="63" />
    <vehicle id="NS_112" type="typeStraight" route="NS" depart="63" />
    <vehicle id="NE_113" type="typeTurn" route="NE" depart="63" />
    <vehicle id="ES_114" type="typeTurn" route="ES" depart="64" />
    <vehicle id="SW_115" type="typeTurn" route="SW" depart="64" />
    <vehicle id="WE_116" type="typeStraight" route="WE" depart="66" />
    <vehicle id="EW_117" type="typeStraight" route="EW" depart="66" />
    <vehicle id="NS_118" type="typeStraight" route="NS" depart="66" />
    <vehicle id="WE_119" type="typeStraight" route="WE" depart="67" />
    <vehicle id="SN_120" type="typeStraight" route="SN" depart="67" />
    <vehicle id="WN_121" type="typeTurn" route="WN" depart="67" />
    <vehicle id="ES_122" type="typeTurn" route="ES" depart="68" />
    <vehicle id="WE_123" type="typeStraight" route="WE" depart="69" />
    <vehicle id="WN_124" type="typeTurn" route="WN" depart="72" />
    <vehicle id="EW_125" type="typeStraight" route="EW" depart="73" />
    <vehicle id="ES_126" type="typeTurn" route="ES" depart="73" />
    <vehicle id="WE_127" type="typeStraight" route="WE" depart="74" />
    <vehicle id="SW_128" type="typeTurn" route="SW" depart="74" />
    <vehicle id="WE_129" type="typeStraight" route="WE" depart="75" />
    <vehicle id="WE_130" type="typeStraight" route="WE" depart="76" />
    <vehicle id="EW_131" type="typeStraight" route="EW" depart="76" />
    <vehicle id="SN_132" type="typeStraight" route="SN" depart="77" />
    <vehicle id="NS_133" type="typeStraight" route="NS" depart="78" />
    <vehicle id="SN_134" type="typeStraight" route="SN" depart="78" />
    <vehicle id="WE_135" type="typeStraight" route="WE" depart="79" />
    <vehicle id="EW_136" type="typeStraight" route="EW" depart="79" />
    <vehicle id="NS_137" type="typeStraight" route="NS" depart="79" />
    <vehicle id="SN_138" type="typeStraight" route="SN" depart="79" />
    <vehicle id="ES_139" type="typeTurn" route="ES" depart="79" />
    <vehicle id="SN_140" type="typeStraight" route="SN" depart="80" />
    <vehicle id="NS_141" type="typeStraight" route="NS" depart="81" />
    <vehicle id="SN_142" type="typeStraight" route="SN" depart="81" />
    <vehicle id="WE_143" type="typeStraight" route="WE" depart="82" />
    <vehicle id="NS_144" type="typeStraight" route="NS" depart="82" />
    <vehicle id="SN_145" type="typeStraight" route="SN" depart="82" />
    <vehicle id="SN_146" type="typeStraight" route="SN" depart="83" />
    <vehicle id="EW_147" type="typeStraight" route="EW" depart="85" />
    <vehicle id="NS_148" type="typeStraight" route="NS" depart="85" />
    <vehicle id="SN_149" type="typeStraight" route="SN" depart="85" />
    <vehicle id="NE_150" type="typeTurn" route="NE" depart="85" />
    <vehicle id="WE_151" type="typeStraight" route="WE" depart="86" />
    <vehicle id="WN_152" type="typeTurn" route="WN" depart="87" />
    <vehicle id="WE_153" type="typeStraight" route="WE" depart="88" />
    <vehicle id="SN_154" type="typeStraight" route="SN" depart="89" />
    <vehicle id="NE_155" type="typeTurn" route="NE" depart="89" />
    <vehicle id="WE_156" type="typeStraight" route="WE" depart="90" />
    <vehicle id="WE_157" type="typeStraight" route="WE" depart="91" />
    <vehicle id="EW_158" type="typeStraight" route="EW" depart="92" />
    <vehicle id="WE_159" type="typeStraight" route="WE" depart="93" />
    <vehicle id="SN_160" type="typeStraight" route="SN" depart="95" />
    <vehicle id="WE_161" type="typeStraight" route="WE" depart="96" />
    <vehicle id="SN_162" type="typeStraight" route="SN" depart="96" />
    <vehicle id="WN_163" type="typeTurn" route="WN" depart="96" />
    <vehicle id="SN_164" type="typeStraight" route="SN" depart="97" />
    <vehicle id="WE_165" type="typeStraight" route="WE" depart="98" />
    <vehicle id="SN_166" type="typeStraight" route="SN" depart="98" />
    <vehicle id="NS_167" type="typeStraight" route="NS" depart="99" />
    <vehicle id="WE_168" type="typeStraight" route="WE" depart="100" />
    <vehicle id="EW_169" type="typeStraight" route="EW" depart="100" />
    <vehicle id="EW_170" type="typeStraight" route="EW" depart="102" />
    <vehicle id="NS_171" type="typeStraight" route="NS" depart="103" />
    <vehicle id="SN_172" type="typeStraight" route="SN" depart="106" />
    <vehicle id="NE_173" type="typeTurn" route="NE" depart="106" />
    <vehicle id="NS_174" type="typeStraight" route="NS" depart="107" />
    <vehicle id="WE_175" type="typeStraight" route="WE" depart="108" />
    <vehicle id="NS_176" type="typeStraight" route="NS" depart="108" />
    <vehicle id="WE_177" type="typeStraight" route="WE" depart="109" />
    <vehicle id="EW_178" type="typeStraight" route="EW" depart="109" />
    <vehicle id="WE_179" type="typeStraight" route="WE" depart="110" />
    <vehicle id="EW_180" type="typeStraight" route="EW" depart="110" />
    <vehicle id="NS_181" type="typeStraight" route="NS" depart="110" />
    <vehicle id="EW_182" type="typeStraight" route="EW" depart="112" />
    <vehicle id="WE_183" type="typeStraight" route="WE" depart="113" />
    <vehicle id="NE_184" type="typeTurn" route="NE" depart="113" />
    <vehicle id="WE_185" type="typeStraight" route="WE" depart="114" />
    <vehicle id="EW_186" type="typeStraight" route="EW" depart="116" />
    <vehicle id="NS_187" type="typeStraight" route="NS" depart="116" />
    <vehicle id="SN_188" type="typeStraight" route="SN" depart="117" />
    <vehicle id="EW_189" type="typeStraight" route="EW" depart="118" />
    <vehicle id="SN_190" type="typeStraight" route="SN" depart="118" />
    <vehicle id="NE_191" type="typeTurn" route="NE" depart="119" />
    <vehicle id="SW_192" type="typeTurn" route="SW" depart="120" />
    <vehicle id="NS_193" type="typeStraight" route="NS" depart="121" />
    <vehicle id="SN_194" type="typeStraight" route="SN" depart="121" />
    <vehicle id="WE_195" type="typeStraight" route="WE" depart="122" />
    <vehicle id="NE_196" type="typeTurn" route="NE" depart="122" />
    <vehicle id="WN_197" type="typeTurn" route="WN" depart="123" />
    <vehicle id="SN_198" type="typeStraight" route="SN" depart="124" />
    <vehicle id="WE_199" type="typeStraight" route="WE" depart="125" />
    <vehicle id="ES_200" type="typeTurn" route="ES" depart="126" />
    <vehicle id="WE_201" type="typeStraight" route="WE" depart="127" />
    <vehicle id="NS_202" type="typeStraight" route="NS" depart="127" />
    <vehicle id="WE_203" type="typeStraight" route="WE" depart="128" />
    <vehicle id="NS_204" type="typeStraight" route="NS" depart="128" />
    <vehicle id="EW_205" type="typeStraight" route="EW" depart="129" />
    <vehicle id="NS_206" type="typeStraight" route="NS" depart="129" />
    <vehicle id="WN_207" type="typeTurn" route="WN" depart="129" />
    <vehicle id="EW_208" type="typeStraight" route="EW" depart="131" />
    <vehicle id="WN_209" type="typeTurn" route="WN" depart="131" />
    <vehicle id="ES_210" type="typeTurn" route="ES" depart="132" />
    <vehicle id="SW_211" type="typeTurn" route="SW" depart="132" />
    <vehicle id="WE_212" type="typeStraight" route="WE" depart="133" />
    <vehicle id="EW_213" type="typeStraight" route="EW" depart="133" />
    <vehicle id="EW_214" type="typeStraight" route="EW" depart="134" />
    <vehicle id="EW_215" type="typeStraight" route="EW" depart="135" />
    <vehicle id="ES_216" type="typeTurn" route="ES" depart="135" />
    <vehicle id="EW_217" type="typeStraight" route="EW" depart="136" />
    <vehicle id="SN_218" type="typeStraight" route="SN" depart="136" />
    <vehicle id="ES_219" type="typeTurn" route="ES" depart="136" />
    <vehicle id="SW_220" type="typeTurn" route="SW" depart="136" />
    <vehicle id="EW_221" type="typeStraight" route="EW" depart="139" />
    <vehicle id="NS_222" type="typeStraight" route="NS" depart="139" />
    <vehicle id="ES_223" type="typeTurn" route="ES" depart="140" />
    <vehicle id="WE_224" type="typeStraight" route="WE" depart="141" />
    <vehicle id="EW_225" type="typeStraight" route="EW" depart="141" />
    <vehicle id="ES_226" type="typeTurn" route="ES" depart="141" />
    <vehicle id="EW_227" type="typeStraight" route="EW" depart="142" />
    <vehicle id="SN_228" type="typeStraight" route="SN" depart="142" />
    <vehicle id="NE_229" type="typeTurn" route="NE" depart="143" />
    <vehicle id="ES_230" type="typeTurn" route="ES" depart="143" />
    <vehicle id="EW_231" type="typeStraight" route="EW" depart="144" />
    <vehicle id="EW_232" type="typeStraight" route="EW" depart="145" />
    <vehicle id="ES_233" type="typeTurn" route="ES" depart="145" />
    <vehicle id="WE_234" type="typeStraight" route="WE" depart="146" />
    <vehicle id="NS_235" type="typeStraight" route="NS" depart="146" />
    <vehicle id="SN_236" type="typeStraight" route="SN" depart="146" />
    <vehicle id="SW_237" type="typeTurn" route="SW" depart="146" />
    <vehicle id="WE_238" type="typeStraight" route="WE" depart="147" />
    <vehicle id="SW_239" type="typeTurn" route="SW" depart="147" />
    <vehicle id="WE_240" type="typeStraight" route="WE" depart="148" />
    <vehicle id="EW_241" type="typeStraight" route="EW" depart="148" />
    <vehicle id="WE_242" type="typeStraight" route="WE" depart="149" />
    <vehicle id="EW_243" type="typeStraight" route="EW" depart="149" />
    <vehicle id="WN_244" type="typeTurn" route="WN" depart="149" />
    <vehicle id="EW_245" type="typeStraight" route="EW" depart="150" />
    <vehicle id="WE_246" type="typeStraight" route="WE" depart="151" />
    <vehicle id="NS_247" type="typeStraight" route="NS" depart="151" />
    <vehicle id="EW_248" type="typeStraight" route="EW" depart="152" />
    <vehicle id="NS_249" type="typeStraight" route="NS" depart="152" />
    <vehicle id="SN_250" type="typeStraight" route="SN" depart="152" />
    <vehicle id="SN_251" type="typeStraight" route="SN" depart="154" />
    <vehicle id="NE_252" type="typeTurn" route="NE" depart="154" />
    <vehicle id="WE_253" type="typeStraight" route="WE" depart="155" />
    <vehicle id="NE_254" type="typeTurn" route="NE" depart="155" />
    <vehicle id="SW_255" type="typeTurn" route="SW" depart="155" />
    <vehicle id="ES_256" type="typeTurn" route="ES" depart="157" />
    <vehicle id="SN_257" type="typeStraight" route="SN" depart="158" />
    <vehicle id="WE_258" type="typeStraight" route="WE" depart="159" />
    <vehicle id="NS_259" type="typeStraight" route="NS" depart="159" />
    <vehicle id="WE_260" type="typeStraight" route="WE" depart="160" />
    <vehicle id="EW_261" type="typeStraight" route="EW" depart="160" />
    <vehicle id="SN_262" type="typeStraight" route="SN" depart="160" />
    <vehicle id="NS_263" type="typeStraight" route="NS" depart="161" />
    <vehicle id="NS_264" type="typeStraight" route="NS" depart="164" />
    <vehicle id="SN_265" type="typeStraight" route="SN" depart="164" />
    <vehicle id="NE_266" type="typeTurn" route="NE" depart="164" />
    <vehicle id="NS_267" type="typeStraight" route="NS" depart="165" />
    <vehicle id="SN_268" type="typeStraight" route="SN" depart="166" />
    <vehicle id="EW_269" type="typeStraight" route="EW" depart="167" />
    <vehicle id="SN_270" type="typeStraight" route="SN" depart="169" />
    <vehicle id="WE_271" type="typeStraight" route="WE" depart="170" />
    <vehicle id="SN_272" type="typeStraight" route="SN" depart="170" />
    <vehicle id="NS_273" type="typeStraight" route="NS" depart="171" />
    <vehicle id="ES_274" type="typeTurn" route="ES" depart="171" />
    <vehicle id="SW_275" type="typeTurn" route="SW" depart="171" />
    <vehicle id="WE_276" type="typeStraight" route="WE" depart="172" />
    <vehicle id="SN_277" type="typeStraight" route="SN" depart="172" />
    <vehicle id="WE_278" type="typeStraight" route="WE" depart="173" />
    <vehicle id="EW_279" type="typeStraight" route="EW" depart="173" />
    <vehicle id="WN_280" type="typeTurn" route="WN" depart="173" />
    <vehicle id="WE_281" type="typeStraight" route="WE" depart="174" />
    <vehicle id="EW_282" type="typeStraight" route="EW" depart="174" />
    <vehicle id="EW_283" type="typeStraight" route="EW" depart="175" />
    <vehicle id="WE_284" type="typeStraight" route="WE" depart="176" />
    <vehicle id="NS_285" type="typeStraight" route="NS" depart="176" />
    <vehicle id="SN_286" type="typeStraight" route="SN" depart="176" />
    <vehicle id="EW_287" type="typeStraight" route="EW" depart="177" />
    <vehicle id="SN_288" type="typeStraight" route="SN" depart="177" />
    <vehicle id="ES_289" type="typeTurn" route="ES" depart="178" />
    <vehicle id="ES_290" type="typeTurn" route="ES" depart="179" />
    <vehicle id="WE_291" type="typeStraight" route="WE" depart="180" />
    <vehicle id="SW_292" type="typeTurn" route="SW" depart="180" />
    <vehicle id="EW_293" type="typeStraight" route="EW" depart="181" />
    <vehicle id="NS_294" type="typeStraight" route="NS" depart="181" />
    <vehicle id="SN_295" type="typeStraight" route="SN" depart="181" />
    <vehicle id="NE_296" type="typeTurn" route="NE" depart="181" />
    <vehicle id="EW_297" type="typeStraight" route="EW" depart="182" />
    <vehicle id="SN_298" type="typeStraight" route="SN" depart="182" />
    <vehicle id="WE_299" type="typeStraight" route="WE" depart="183" />
    <vehicle id="ES_300" type="typeTurn" route="ES" depart="184" />
    <vehicle id="NS_301" type="typeStraight" route="NS" depart="185" />
    <vehicle id="EW_302" type="typeStraight" route="EW" depart="186" />
    <vehicle id="WE_303" type="typeStraight" route="WE" depart="187" />
    <vehicle id="EW_304" type="typeStraight" route="EW" depart="188" />
    <vehicle id="NS_305" type="typeStraight" route="NS" depart="188" />
    <vehicle id="WE_306" type="typeStraight" route="WE" depart="190" />
    <vehicle id="EW_307" type="typeStraight" route="EW" depart="190" />
    <vehicle id="NS_308" type="typeStraight" route="NS" depart="191" />
    <vehicle id="NS_309" type="typeStraight" route="NS" depart="192" />
    <vehicle id="WN_310" type="typeTurn" route="WN" depart="192" />
    <vehicle id="WE_311" type="typeStraight" route="WE" depart="194" />
    <vehicle id="EW_312" type="typeStraight" route="EW" depart="194" />
    <vehicle id="NS_313" type="typeStraight" route="NS" depart="194" />
    <vehicle id="NE_314" type="typeTurn" route="NE" depart="194" />
    <vehicle id="NS_315" type="typeStraight" route="NS" depart="195" />
    <vehicle id="EW_316" type="typeStraight" route="EW" depart="196" />
    <vehicle id="NS_317" type="typeStraight" route="NS" depart="197" />
    <vehicle id="SW_318" type="typeTurn" route="SW" depart="197" />
    <vehicle id="WE_319" type="typeStraight" route="WE" depart="198" />
    <vehicle id="EW_320" type="typeStraight" route="EW" depart="198" />
    <vehicle id="WE_321" type="typeStraight" route="WE" depart="199" />
    <vehicle id="SN_322" type="typeStraight" route="SN" depart="199" />
    <vehicle id="EW_323" type="typeStraight" route="EW" depart="200" />
    <vehicle id="WE_324" type="typeStraight" route="WE" depart="201" />
    <vehicle id="EW_325" type="typeStraight" route="EW" depart="201" />
    <vehicle id="NS_326" type="typeStraight" route="NS" depart="202" />
    <vehicle id="WE_327" type="typeStraight" route="WE" depart="203" />
    <vehicle id="EW_328" type="typeStraight" route="EW" depart="203" />
    <vehicle id="SN_329" type="typeStraight" route="SN" depart="204" />
    <vehicle id="WE_330" type="typeStraight" route="WE" depart="205" />
    <vehicle id="EW_331" type="typeStraight" route="EW" depart="205" />
    <vehicle id="NS_332" type="typeStraight" route="NS" depart="205" />
    <vehicle id="SN_333" type="typeStraight" route="SN" depart="205" />
    <vehicle id="WE_334" type="typeStraight" route="WE" depart="206" />
    <vehicle id="EW_335" type="typeStraight" route="EW" depart="207" />
    <vehicle id="WN_336" type="typeTurn" route="WN" depart="207" />
    <vehicle id="WN_337" type="typeTurn" route="WN" depart="209" />
    <vehicle id="NS_338" type="typeStraight" route="NS" depart="210" />
    <vehicle id="WN_339" type="typeTurn" route="WN" depart="211" />
    <vehicle id="WE_340" type="typeStraight" route="WE" depart="212" />
    <vehicle id="WE_341" type="typeStraight" route="WE" depart="213" />
    <vehicle id="SN_342" type="typeStraight" route="SN" depart="213" />
    <vehicle id="WE_343" type="typeStraight" route="WE" depart="214" />
    <vehicle id="EW_344" type="typeStraight" route="EW" depart="215" />
    <vehicle id="EW_345" type="typeStraight" route="EW" depart="216" />
    <vehicle id="WN_346" type="typeTurn" route="WN" depart="216" />
    <vehicle id="EW_347" type="typeStraight" route="EW" depart="217" />
    <vehicle id="NS_348" type="typeStraight" route="NS" depart="217" />
    <vehicle id="SN_349" type="typeStraight" route="SN" depart="218" />
    <vehicle id="NS_350" type="typeStraight" route="NS" depart="219" />
    <vehicle id="SN_351" type="typeStraight" route="SN" depart="220" />
    <vehicle id="WE_352" type="typeStraight" route="WE" depart="221" />
    <vehicle id="EW_353" type="typeStraight" route="EW" depart="221" />
    <vehicle id="NS_354" type="typeStraight" route="NS" depart="221" />
    <vehicle id="WE_355" type="typeStraight" route="WE" depart="222" />
    <vehicle id="EW_356" type="typeStraight" route="EW" depart="222" />
    <vehicle id="WE_357" type="typeStraight" route="WE" depart="223" />
    <vehicle id="EW_358" type="typeStraight" route="EW" depart="223" />
    <vehicle id="SN_359" type="typeStraight" route="SN" depart="224" />
    <vehicle id="NS_360" type="typeStraight" route="NS" depart="225" />
    <vehicle id="WN_361" type="typeTurn" route="WN" depart="225" />
    <vehicle id="SN_362" type="typeStraight" route="SN" depart="227" />
    <vehicle id="EW_363" type="typeStraight" route="EW" depart="228" />
    <vehicle id="SN_364" type="typeStraight" route="SN" depart="228" />
    <vehicle id="NE_365" type="typeTurn" route="NE" depart="229" />
    <vehicle id="WE_366" type="typeStraight" route="WE" depart="230" />
    <vehicle id="WE_367" type="typeStraight" route="WE" depart="231" />
    <vehicle id="EW_368" type="typeStraight" route="EW" depart="231" />
    <vehicle id="SN_369" type="typeStraight" route="SN" depart="231" />
    <vehicle id="EW_370" type="typeStraight" route="EW" depart="232" />
    <vehicle id="SW_371" type="typeTurn" route="SW" depart="232" />
    <vehicle id="WE_372" type="typeStraight" route="WE" depart="233" />
    <vehicle id="EW_373" type="typeStraight" route="EW" depart="233" />
    <vehicle id="SN_374" type="typeStraight" route="SN" depart="233" />
    <vehicle id="NS_375" type="typeStraight" route="NS" depart="234" />
    <vehicle id="ES_376" type="typeTurn" route="ES" depart="234" />
    <vehicle id="EW_377" type="typeStraight" route="EW" depart="236" />
    <vehicle id="NS_378" type="typeStraight" route="NS" depart="236" />
    <vehicle id="SN_379" type="typeStraight" route="SN" depart="236" />
    <vehicle id="SN_380" type="typeStraight" route="SN" depart="237" />
    <vehicle id="WN_381" type="typeTurn" route="WN" depart="237" />
    <vehicle id="NS_382" type="typeStraight" route="NS" depart="238" />
    <vehicle id="NE_383" type="typeTurn" route="NE" depart="238" />
    <vehicle id="WE_384" type="typeStraight" route="WE" depart="239" />
    <vehicle id="SN_385" type="typeStraight" route="SN" depart="239" />
    <vehicle id="SW_386" type="typeTurn" route="SW" depart="239" />
    <vehicle id="NE_387" type="typeTurn" route="NE" depart="240" />
    <vehicle id="NE_388" type="typeTurn" route="NE" depart="241" />
    <vehicle id="SW_389" type="typeTurn" route="SW" depart="241" />
    <vehicle id="EW_390" type="typeStraight" route="EW" depart="242" />
    <vehicle id="SN_391" type="typeStraight" route="SN" depart="242" />
    <vehicle id="WE_392" type="typeStraight" route="WE" depart="245" />
    <vehicle id="EW_393" type="typeStraight" route="EW" depart="245" />
    <vehicle id="NS_394" type="typeStraight" route="NS" depart="245" />
    <vehicle id="SN_395" type="typeStraight" route="SN" depart="245" />
    <vehicle id="WE_396" type="typeStraight" route="WE" depart="246" />
    <vehicle id="NS_397" type="typeStraight" route="NS" depart="246" />
    <vehicle id="NS_398" type="typeStraight" route="NS" depart="247" />
    <vehicle id="SN_399" type="typeStraight" route="SN" depart="247" />
    <vehicle id="ES_400" type="typeTurn" route="ES" depart="247" />
    <vehicle id="WE_401" type="typeStraight" route="WE" depart="248" />
    <vehicle id="SN_402" type="typeStraight" route="SN" depart="248" />
    <vehicle id="SW_403" type="typeTurn" route="SW" depart="248" />
    <vehicle id="WE_404" type="typeStraight" route="WE" depart="249" />
    <vehicle id="WE_405" type="typeStraight" route="WE" depart="250" />
    <vehicle id="NS_406" type="typeStraight" route="NS" depart="250" />
    <vehicle id="NE_407" type="typeTurn" route="NE" depart="250" />
    <vehicle id="EW_408" type="typeStraight" route="EW" depart="252" />
    <vehicle id="SN_409" type="typeStraight" route="SN" depart="254" />
    <vehicle id="NS_410" type="typeStraight" route="NS" depart="255" />
    <vehicle id="NS_411" type="typeStraight" route="NS" depart="256" />
    <vehicle id="WE_412" type="typeStraight" route="WE" depart="257" />
    <vehicle id="NS_413" type="typeStraight" route="NS" depart="257" />
    <vehicle id="EW_414" type="typeStraight" route="EW" depart="258" />
    <vehicle id="NE_415" type="typeTurn" route="NE" depart="258" />
    <vehicle id="NS_416" type="typeStraight" route="NS" depart="260" />