<routes>
        <vType id="typeStraight" accel="1" decel="4.5" sigma="0.5" length="5" minGap="2.5" maxSpeed="13.9" guiShape="passenger"/>
        <vType id="typeTurn" accel="1" decel="4.5" sigma="0.5" length="5" minGap="2.5" maxSpeed="13.9" guiShape="passenger"/>

        <route id="WE" edges="1i 2o" />
        <route id="EW" edges="2i 1o " />
        <route id="NS" edges="4i 3o " />
        <route id="SN" edges="3i 4o " />
        <route id="NE" edges="4i 2o" />
        <route id="ES" edges="2i 3o " />
        <route id="SW" edges="3i 1o " />
        <route id="WN" edges="1i 4o " />
    <vehicle id="NE_0" type="typeTurn" route="NE" depart="0" />
    <vehicle id="NE_1" type="typeTurn" route="NE" depart="1" />
    <vehicle id="WE_2" type="typeStraight" route="WE" depart="1" />
    <vehicle id="SW_3" type="typeTurn" route="SW" depart="2" />
    <vehicle id="NE_4" type="typeTurn" route="NE" depart="5" />
    <vehicle id="SW_5" type="typeTurn" route="SW" depart="8" />
    <vehicle id="NE_6" type="typeTurn" route="NE" depart="11" />
    <vehicle id="EW_7" type="typeStraight" route="EW" depart="11" />
    <vehicle id="WE_8" type="typeStraight" route="WE" depart="12" />
    <vehicle id="WE_9" type="typeStraight" route="WE" depart="15" />
    <vehicle id="EW_10" type="typeStraight" route="EW" depart="15" />
    <vehicle id="SW_11" type="typeTurn" route="SW" depart="16" />
    <vehicle id="NS_12" type="typeStraight" route="NS" depart="17" />
    <vehicle id="NS_13" type="typeStraight" route="NS" depart="20" />
    <vehicle id="WN_14" type="typeTurn" route="WN" depart="20" />
    <vehicle id="WN_15" type="typeTurn" route="WN" depart="24" />
    <vehicle id="ES_16" type="typeTurn" route="ES" depart="25" />
    <vehicle id="NS_17" type="typeStraight" route="NS" depart="28" />
    <vehicle id="WE_18" type="typeStraight" route="WE" depart="31" />
    <vehicle id="NS_19" type="typeStraight" route="NS" depart="32" />
    <vehicle id="WN_20" type="typeTurn" route="WN" depart="33" />
    <vehicle id="SN_21" type="typeStraight" route="SN" depart="36" />
    <vehicle id="NE_22" type="typeTurn" route="NE" depart="37" />
    <vehicle id="WE_23" type="typeStraight" route="WE" depart="40" />
    <vehicle id="EW_24" type="typeStraight" route="EW" depart="42" />
    <vehicle id="NS_25" type="typeStraight" route="NS" depart="46" />
    <vehicle id="ES_26" type="typeTurn" route="ES" depart="46" />
    <vehicle id="SN_27" type="typeStraight" route="SN" depart="49" />
    <vehicle id="ES_28" type="typeTurn" route="ES" depart="51" />
    <vehicle id="SW_29" type="typeTurn" route="SW" depart="52" />
    <vehicle id="SW_30" type="typeTurn" route="SW" depart="53" />
    <vehicle id="SW_31" type="typeTurn" route="SW" depart="54" />
    <vehicle id="WN_32" type="typeTurn" route="WN" depart="58" />
    <vehicle id="NE_33" type="typeTurn" route="NE" depart="60" />
    <vehicle id="WN_34" type="typeTurn" route="WN" depart="61" />
    <vehicle id="WN_35" type="typeTurn" route="WN" depart="62" />
    <vehicle id="NS_36" type="typeStraight" route="NS" depart="63" />
    <vehicle id="WE_37" type="typeStraight" route="WE" depart="63" />
    <vehicle id="EW_38" type="typeStraight" route="EW" depart="64" />
    <vehicle id="NS_39" type="typeStraight" route="NS" depart="66" />
    <vehicle id="ES_40" type="typeTurn" route="ES" depart="67" />
    <vehicle id="WN_41" type="typeTurn" route="WN" depart="73" />
    <vehicle id="EW_42" type="typeStraight" route="EW" depart="74" />
    <vehicle id="WN_43" type="typeTurn" route="WN" depart="79" />
    <vehicle id="SW_44" type="typeTurn" route="SW" depart="81" />
    <vehicle id="NS_45" type="typeStraight" route="NS" depart="82" />
    <vehicle id="SN_46" type="typeStraight" route="SN" depart="82" />
    <vehicle id="WE_47" type="typeStraight" route="WE" depart="85" />
    <vehicle id="ES_48" type="typeTurn" route="ES" depart="87" />
    <vehicle id="WE_49" type="typeStraight" route="WE" depart="89" />
    <vehicle id="NS_50" type="typeStraight" route="NS" depart="91" />
    <vehicle id="NE_51" type="typeTurn" route="NE" depart="102" />
    <vehicle id="SN_52" type="typeStraight" route="SN" depart="103" />
    <vehicle id="SW_53" type="typeTurn" route="SW" depart="106" />
    <vehicle id="WE_54" type="typeStraight" route="WE" depart="106" />
    <vehicle id="NS_55" type="typeStraight" route="NS" depart="108" />
    <vehicle id="SN_56" type="typeStraight" route="SN" depart="110" />
    <vehicle id="WE_57" type="typeStraight" route="WE" depart="113" />
    <vehicle id="WE_58" type="typeStraight" route="WE" depart="119" />
    <vehicle id="EW_59" type="typeStraight" route="EW" depart="120" />
    <vehicle id="SW_60" type="typeTurn" route="SW" depart="121" />
    <vehicle id="SW_61" type="typeTurn" route="SW" depart="124" />
    <vehicle id="WN_62" type="typeTurn" route="WN" depart="126" />
    <vehicle id="SN_63" type="typeStraight" route="SN" depart="127" />
    <vehicle id="SN_64" type="typeStraight" route="SN" depart="128" />
    <vehicle id="NE_65" type="typeTurn" route="NE" depart="129" />
    <vehicle id="SN_66" type="typeStraight" route="SN" depart="129" />
    <vehicle id="ES_67" type="typeTurn" route="ES" depart="129" />
    <vehicle id="NE_68" type="typeTurn" route="NE" depart="131" />
    <vehicle id="ES_69" type="typeTurn" route="ES" depart="131" />
    <vehicle id="WN_70" type="typeTurn" route="WN" depart="132" />
    <vehicle id="NS_71" type="typeStraight" route="NS" depart="133" />
    <vehicle id="SW_72" type="typeTurn" route="SW" depart="136" />
    <vehicle id="WN_73" type="typeTurn" route="WN" depart="140" />
    <vehicle id="WN_74" type="typeTurn" route="WN" depart="141" />
    <vehicle id="SW_75" type="typeTurn" route="SW" depart="142" />
    <vehicle id="WN_76" type="typeTurn" route="WN" depart="143" />
    <vehicle id="WN_77" type="typeTurn" route="WN" depart="145" />
    <vehicle id="NS_78" type="typeStraight" route="NS" depart="146" />
    <vehicle id="EW_79" type="typeStraight" route="EW" depart="146" />
    <vehicle id="EW_80" type="typeStraight" route="EW" depart="147" />
    <vehicle id="NS_81" type="typeStraight" route="NS" depart="148" />
    <vehicle id="NE_82" type="typeTurn" route="NE" depart="148" />
    <vehicle id="NE_83" type="typeTurn" route="NE" depart="149" />
    <vehicle id="WE_84" type="typeStraight" route="WE" depart="154" />
    <vehicle id="NS_85" type="typeStraight" route="NS" depart="155" />
    <vehicle id="WE_86" type="typeStraight" route="WE" depart="155" />
    <vehicle id="WN_87" type="typeTurn" route="WN" depart="157" />
    <vehicle id="NS_88" type="typeStraight" route="NS" depart="160" />
    <vehicle id="SN_89" type="typeStraight" route="SN" depart="165" />
    <vehicle id="WN_90" type="typeTurn" route="WN" depart="171" />
    <vehicle id="EW_91" type="typeStraight" route="EW" depart="171" />
    <vehicle id="SW_92" type="typeTurn" route="SW" depart="172" />
    <vehicle id="ES_93" type="typeTurn" route="ES" depart="173" />
    <vehicle id="NE_94" type="typeTurn" route="NE" depart="175" />
    <vehicle id="NS_95" type="typeStraight" route="NS" depart="176" />
    <vehicle id="SW_96" type="typeTurn" route="SW" depart="177" />
    <vehicle id="WN_97" type="typeTurn" route="WN" depart="178" />
    <vehicle id="WN_98" type="typeTurn" route="WN" depart="179" />
    <vehicle id="EW_99" type="typeStraight" route="EW" depart="180" />
    <vehicle id="SN_100" type="typeStraight" route="SN" depart="181" />
    <vehicle id="WE_101" type="typeStraight" route="WE" depart="181" />
    <vehicle id="NE_102" type="typeTurn" route="NE" depart="186" />
    <vehicle id="NE_103" type="typeTurn" route="NE" depart="188" />
    <vehicle id="SN_104" type="typeStraight" route="SN" depart="188" />
    <vehicle id="ES_105" type="typeTurn" route="ES" depart="192" />
    <vehicle id="WE_106" type="typeStraight" route="WE" depart="194" />
    <vehicle id="NE_107" type="typeTurn" route="NE" depart="196" />
    <vehicle id="EW_108" type="typeStraight" route="EW" depart="197" />
    <vehicle id="NS_109" type="typeStraight" route="NS" depart="201" />
    <vehicle id="NE_110" type="typeTurn" route="NE" depart="201" />
    <vehicle id="NS_111" type="typeStraight" route="NS" depart="203" />
    <vehicle id="NE_112" type="typeTurn" route="NE" depart="203" />
    <vehicle id="NE_113" type="typeTurn" route="NE" depart="207" />
    <vehicle id="ES_114" type="typeTurn" route="ES" depart="207" />
    <vehicle id="ES_115" type="typeTurn" route="ES" depart="209" />
    <vehicle id="ES_116" type="typeTurn" route="ES" depart="211" />
    <vehicle id="NE_117" type="typeTurn" route="NE" depart="215" />
    <vehicle id="ES_118" type="typeTurn" route="ES" depart="216" />
    <vehicle id="SN_119" type="typeStraight" route="SN" depart="217" />
    <vehicle id="SW_120" type="typeTurn" route="SW" depart="218" />
    <vehicle id="SN_121" type="typeStraight" route="SN" depart="225" />
    <vehicle id="ES_122" type="typeTurn" route="ES" depart="225" />
    <vehicle id="WE_123" type="typeStraight" route="WE" depart="229" />
    <vehicle id="SN_124" type="typeStraight" route="SN" depart="234" />
    <vehicle id="WN_125" type="typeTurn" route="WN" depart="234" />
    <vehicle id="WE_126" type="typeStraight" route="WE" depart="238" />
    <vehicle id="WE_127" type="typeStraight" route="WE" depart="240" />
    <vehicle id="WE_128" type="typeStraight" route="WE" depart="241" />
    <vehicle id="EW_129" type="typeStraight" route="EW" depart="241" />
    <vehicle id="NE_130" type="typeTurn" route="NE" depart="242" />
    <vehicle id="SW_131" type="typeTurn" route="SW" depart="242" />
    <vehicle id="NE_132" type="typeTurn" route="NE" depart="245" />
    <vehicle id="SN_133" type="typeStraight" route="SN" depart="245" />
    <vehicle id="SN_134" type="typeStraight" route="SN" depart="247" />
    <vehicle id="WN_135" type="typeTurn" route="WN" depart="247" />
    <vehicle id="NS_136" type="typeStraight" route="NS" depart="248" />
    <vehicle id="EW_137" type="typeStraight" route="EW" depart="248" />
    <vehicle id="WE_138" type="typeStraight" route="WE" depart="250" />
    <vehicle id="SN_139" type="typeStraight" route="SN" depart="256" />
    <vehicle id="EW_140" type="typeStraight" route="EW" depart="262" />
    <vehicle id="ES_141" type="typeTurn" route="ES" depart="262" />
    <vehicle id="NS_142" type="typeStraight" route="NS" depart="264" />
    <vehicle id="NS_143" type="typeStraight" route="NS" depart="265" />
    <vehicle id="SN_144" type="typeStraight" route="SN" depart="265" />
    <vehicle id="EW_145" type="typeStraight" route="EW" depart="265" />
    <vehicle id="NS_146" type="typeStraight" route="NS" depart="269" />
    <vehicle id="NE_147" type="typeTurn" route="NE" depart="269" />
    <vehicle id="SN_148" type="typeStraight" route="SN" depart="270" />
    <vehicle id="ES_149" type="typeTurn" route="ES" depart="270" />
    <vehicle id="NS_150" type="typeStraight" route="NS" depart="271" />
    <vehicle id="WE_151" type="typeStraight" route="WE" depart="271" />
    <vehicle id="NE_152" type="typeTurn" route="NE" depart="274" />
    <vehicle id="NE_153" type="typeTurn" route="NE" depart="275" />
    <vehicle id="WN_154" type="typeTurn" route="WN" depart="277" />
    <vehicle id="EW_155" type="typeStraight" route="EW" depart="278" />
    <vehicle id="NS_156" type="typeStraight" route="NS" depart="281" />
    <vehicle id="NE_157" type="typeTurn" route="NE" depart="288" />
    <vehicle id="SW_158" type="typeTurn" route="SW" depart="290" />
    <vehicle id="SN_159" type="typeStraight" route="SN" depart="291" />
    <vehicle id="EW_160" type="typeStraight" route="EW" depart="292" />
    <vehicle id="ES_161" type="typeTurn" route="ES" depart="296" />
    <vehicle id="NS_162" type="typeStraight" route="NS" depart="298" />
    <vehicle id="NS_163" type="typeStraight" route="NS" depart="303" />
    <vehicle id="SN_164" type="typeStraight" route="SN" depart="303" />
    <vehicle id="WN_165" type="typeTurn" route="WN" depart="304" />
    <vehicle id="WN_166" type="typeTurn" route="WN" depart="306" />
    <vehicle id="EW_167" type="typeStraight" route="EW" depart="309" />
    <vehicle id="WE_168" type="typeStraight" route="WE" depart="314" />
    <vehicle id="SW_169" type="typeTurn" route="SW" depart="315" />
    <vehicle id="NS_170" type="typeStraight" route="NS" depart="317" />
    <vehicle id="ES_171" type="typeTurn" route="ES" depart="317" />
    <vehicle id="SW_172" type="typeTurn" route="SW" depart="320" />
    <vehicle id="NS_173" type="typeStraight" route="NS" depart="321" />
    <vehicle id="EW_174" type="typeStraight" route="EW" depart="321" />
    <vehicle id="SW_175" type="typeTurn" route="SW" depart="323" />
    <vehicle id="SN_176" type="typeStraight" route="SN" depart="327" />
    <vehicle id="WN_177" type="typeTurn" route="WN" depart="329" />
    <vehicle id="EW_178" type="typeStraight" route="EW" depart="329" />
    <vehicle id="NS_179" type="typeStraight" route="NS" depart="330" />
    <vehicle id="NE_180" type="typeTurn" route="NE" depart="330" />
    <vehicle id="WN_181" type="typeTurn" route="WN" depart="332" />
    <vehicle id="NE_182" type="typeTurn" route="NE" depart="333" />
    <vehicle id="ES_183" type="typeTurn" route="ES" depart="335" />
    <vehicle id="SN_184" type="typeStraight" route="SN" depart="336" />
    <vehicle id="NE_185" type="typeTurn" route="NE" depart="338" />
    <vehicle id="NE_186" type="typeTurn" route="NE" depart="341" />
    <vehicle id="ES_187" type="typeTurn" route="ES" depart="341" />
    <vehicle id="WE_188" type="typeStraight" route="WE" depart="343" />
    <vehicle id="SW_189" type="typeTurn" route="SW" depart="344" />
    <vehicle id="SW_190" type="typeTurn" route="SW" depart="345" />
    <vehicle id="NE_191" type="typeTurn" route="NE" depart="347" />
    <vehicle id="WN_192" type="typeTurn" route="WN" depart="348" />
    <vehicle id="ES_193" type="typeTurn" route="ES" depart="350" />
    <vehicle id="NE_194" type="typeTurn" route="NE" depart="352" />
    <vehicle id="NE_195" type="typeTurn" route="NE" depart="353" />
    <vehicle id="WE_196" type="typeStraight" route="WE" depart="354" />
    <vehicle id="WN_197" type="typeTurn" route="WN" depart="354" />
    <vehicle id="WE_198" type="typeStraight" route="WE" depart="355" />
    <vehicle id="SN_199" type="typeStraight" route="SN" depart="356" />
    <vehicle id="NE_200" type="typeTurn" route="NE" depart="357" />
    <vehicle id="ES_201" type="typeTurn" route="ES" depart="357" />
    <vehicle id="WN_202" type="typeTurn" route="WN" depart="360" />
    <vehicle id="NS_203" type="typeStraight" route="NS" depart="362" />
    <vehicle id="WN_204" type="typeTurn" route="WN" depart="363" />
    <vehicle id="WE_205" type="typeStraight" route="WE" depart="365" />
    <vehicle id="WE_206" type="typeStraight" route="WE" depart="366" />
    <vehicle id="ES_207" type="typeTurn" route="ES" depart="370" />
    <vehicle id="SW_208" type="typeTurn" route="SW" depart="373" />
    <vehicle id="EW_209" type="typeStraight" route="EW" depart="373" />
    <vehicle id="WE_210" type="typeStraight" route="WE" depart="375" />
    <vehicle id="NE_211" type="typeTurn" route="NE" depart="376" />
    <vehicle id="SW_212" type="typeTurn" route="SW" depart="377" />
    <vehicle id="NE_213" type="typeTurn" route="NE" depart="379" />
    <vehicle id="SW_214" type="typeTurn" route="SW" depart="380" />
    <vehicle id="EW_215" type="typeStraight" route="EW" depart="382" />
    <vehicle id="ES_216" type="typeTurn" route="ES" depart="387" />
    <vehicle id="NE_217" type="typeTurn" route="NE" depart="391" />
    <vehicle id="EW_218" type="typeStraight" route="EW" depart="391" />
    <vehicle id="WN_219" type="typeTurn" route="WN" depart="392" />
    <vehicle id="SN_220" type="typeStraight" route="SN" depart="396" />
    <vehicle id="ES_221" type="typeTurn" route="ES" depart="397" />
    <vehicle id="WE_222" type="typeStraight" route="WE" depart="400" />
    <vehicle id="ES_223" type="typeTurn" route="ES" depart="400" />
    <vehicle id="SW_224" type="typeTurn" route="SW" depart="401" />
    <vehicle id="SN_225" type="typeStraight" route="SN" depart="404" />
    <vehicle id="NS_226" type="typeStraight" route="NS" depart="407" />
    <vehicle id="WE_227" type="typeStraight" route="WE" depart="411" />
    <vehicle id="SN_228" type="typeStraight" route="SN" depart="412" />
    <vehicle id="NE_229" type="typeTurn" route="NE" depart="414" />
    <vehicle id="EW_230" type="typeStraight" route="EW" depart="415" />
    <vehicle id="NE_231" type="typeTurn" route="NE" depart="416" />
    <vehicle id="WN_232" type="typeTurn" route="WN" depart="420" />
    <vehicle id="NE_233" type="typeTurn" route="NE" depart="421" />
    <vehicle id="WN_234" type="typeTurn" route="WN" depart="421" />
    <vehicle id="NE_235" type="typeTurn" route="NE" depart="425" />
    <vehicle id="EW_236" type="typeStraight" route="EW" depart="425" />
    <vehicle id="ES_237" type="typeTurn" route="ES" depart="427" />
    <vehicle id="EW_238" type="typeStraight" route="EW" depart="428" />
    <vehicle id="SW_239" type="typeTurn" route="SW" depart="431" />
    <vehicle id="WN_240" type="typeTurn" route="WN" depart="432" />
    <vehicle id="WN_241" type="typeTurn" route="WN" depart="433" />
    <vehicle id="SW_242" type="typeTurn" route="SW" depart="436" />
    <vehicle id="NE_243" type="typeTurn" route="NE" depart="437" />
    <vehicle id="WN_244" type="typeTurn" route="WN" depart="437" />
    <vehicle id="WN_245" type="typeTurn" route="WN" depart="439" />
    <vehicle id="ES_246" type="typeTurn" route="ES" depart="440" />
    <vehicle id="NS_247" type="typeStraight" route="NS" depart="443" />
    <vehicle id="NE_248" type="typeTurn" route="NE" depart="446" />
    <vehicle id="NS_249" type="typeStraight" route="NS" depart="453" />
    <vehicle id="WE_250" type="typeStraight" route="WE" depart="454" />
    <vehicle id="ES_251" type="typeTurn" route="ES" depart="456" />
    <vehicle id="EW_252" type="typeStraight" route="EW" depart="460" />
    <vehicle id="NE_253" type="typeTurn" route="NE" depart="462" />
    <vehicle id="NS_254" type="typeStraight" route="NS" depart="464" />
    <vehicle id="SW_255" type="typeTurn" route="SW" depart="466" />
    <vehicle id="SW_256" type="typeTurn" route="SW" depart="467" />
    <vehicle id="WE_257" type="typeStraight" route="WE" depart="467" />
    <vehicle id="WN_258" type="typeTurn" route="WN" depart="469" />
    <vehicle id="EW_259" type="typeStraight" route="EW" depart="470" />
    <vehicle id="EW_260" type="typeStraight" route="EW" depart="471" />
    <vehicle id="NE_261" type="typeTurn" route="NE" depart="475" />
    <vehicle id="NE_262" type="typeTurn" route="NE" depart="478" />
    <vehicle id="WE_263" type="typeStraight" route="WE" depart="480" />
    <vehicle id="SW_264" type="typeTurn" route="SW" depart="483" />
    <vehicle id="WN_265" type="typeTurn" route="WN" depart="483" />
    <vehicle id="NS_266" type="typeStraight" route="NS" depart="488" />
    <vehicle id="SN_267" type="typeStraight" route="SN" depart="488" />
    <vehicle id="NS_268" type="typeStraight" route="NS" depart="489" />
    <vehicle id="NE_269" type="typeTurn" route="NE" depart="494" />
    <vehicle id="SN_270" type="typeStraight" route="SN" depart="494" />
    <vehicle id="EW_271" type="typeStraight" route="EW" depart="494" />
    <vehicle id="NS_272" type="typeStraight" route="NS" depart="495" />
    <vehicle id="EW_273" type="typeStraight" route="EW" depart="495" />
    <vehicle id="WN_274" type="typeTurn" route="WN" depart="499" />
    <vehicle id="SN_275" type="typeStraight" route="SN" depart="501" />
    <vehicle id="NE_276" type="typeTurn" route="NE" depart="504" />
    <vehicle id="ES_277" type="typeTurn" route="ES" depart="508" />
    <vehicle id="WE_278" type="typeStraight" route="WE" depart="509" />
    <vehicle id="ES_279" type="typeTurn" route="ES" depart="509" />
    <vehicle id="EW_280" type="typeStraight" route="EW" depart="511" />
    <vehicle id="SW_281" type="typeTurn" route="SW" depart="512" />
    <vehicle id="WN_282" type="typeTurn" route="WN" depart="512" />
    <vehicle id="EW_283" type="typeStraight" route="EW" depart="513" />
    <vehicle id="WN_284" type="typeTurn" route="WN" depart="515" />
    <vehicle id="EW_285" type="typeStraight" route="EW" depart="517" />
    <vehicle id="NS_286" type="typeStraight" route="NS" depart="518" />
    <vehicle id="NS_287" type="typeStraight" route="NS" depart="519" />
    <vehicle id="ES_288" type="typeTurn" route="ES" depart="522" />
    <vehicle id="WE_289" type="typeStraight" route="WE" depart="524" />
    <vehicle id="NS_290" type="typeStraight" route="NS" depart="526" />
    <vehicle id="SN_291" type="typeStraight" route="SN" depart="531" />
    <vehicle id="WE_292" type="typeStraight" route="WE" depart="532" />
    <vehicle id="WE_293" type="typeStraight" route="WE" depart="535" />
    <vehicle id="SW_294" type="typeTurn" route="SW" depart="537" />
    <vehicle id="SW_295" type="typeTurn" route="SW" depart="538" />
    <vehicle id="EW_296" type="typeStraight" route="EW" depart="538" />
    <vehicle id="WE_297" type="typeStraight" route="WE" depart="540" />
    <vehicle id="EW_298" type="typeStraight" route="EW" depart="543" />
    <vehicle id="SW_299" type="typeTurn" route="SW" depart="544" />
    <vehicle id="ES_300" type="typeTurn" route="ES" depart="544" />
    <vehicle id="SW_301" type="typeTurn" route="SW" depart="545" />
    <vehicle id="ES_302" type="typeTurn" route="ES" depart="548" />
    <vehicle id="NS_303" type="typeStraight" route="NS" depart="549" />
    <vehicle id="SW_304" type="typeTurn" route="SW" depart="551" />
    <vehicle id="WN_305" type="typeTurn" route="WN" depart="551" />
    <vehicle id="NE_306" type="typeTurn" route="NE" depart="553" />
    <vehicle id="SW_307" type="typeTurn" route="SW" depart="554" />
    <vehicle id="SW_308" type="typeTurn" route="SW" depart="556" />
    <vehicle id="WE_309" type="typeStraight" route="WE" depart="556" />
    <vehicle id="NS_310" type="typeStraight" route="NS" depart="558" />
    <vehicle id="WE_311" type="typeStraight" route="WE" depart="561" />
    <vehicle id="NE_312" type="typeTurn" route="NE" depart="562" />
    <vehicle id="WN_313" type="typeTurn" route="WN" depart="562" />
    <vehicle id="WN_314" type="typeTurn" route="WN" depart="564" />
    <vehicle id="WE_315" type="typeStraight" route="WE" depart="566" />
    <vehicle id="SW_316" type="typeTurn" route="SW" depart="567" />
    <vehicle id="SW_317" type="typeTurn" route="SW" depart="568" />
    <vehicle id="WE_318" type="typeStraight" route="WE" depart="568" />
    <vehicle id="NE_319" type="typeTurn" route="NE" depart="575" />
    <vehicle id="NE_320" type="typeTurn" route="NE" depart="576" />
    <vehicle id="NS_321" type="typeStraight" route="NS" depart="579" />
    <vehicle id="SN_322" type="typeStraight" route="SN" depart="580" />
    <vehicle id="EW_323" type="typeStraight" route="EW" depart="580" />
    <vehicle id="SW_324" type="typeTurn" route="SW" depart="581" />
    <vehicle id="ES_325" type="typeTurn" route="ES" depart="582" />
    <vehicle id="WN_326" type="typeTurn" route="WN" depart="584" />
    <vehicle id="ES_327" type="typeTurn" route="ES" depart="585" />
    <vehicle id="EW_328" type="typeStraight" route="EW" depart="586" />
    <vehicle id="WN_329" type="typeTurn" route="WN" depart="587" />
    <vehicle id="SN_330" type="typeStraight" route="SN" depart="588" />
    <vehicle id="EW_331" type="typeStraight" route="EW" depart="588" />
    <vehicle id="NS_332" type="typeStraight" route="NS" depart="590" />
    <vehicle id="SW_333" type="typeTurn" route="SW" depart="590" />
    <vehicle id="NS_334" type="typeStraight" route="NS" depart="591" />
    <vehicle id="SN_335" type="typeStraight" route="SN" depart="591" />
    <vehicle id="NS_336" type="typeStraight" route="NS" depart="592" />
    <vehicle id="EW_337" type="typeStraight" route="EW" depart="593" />
    <vehicle id="ES_338" type="typeTurn" route="ES" depart="595" />
    <vehicle id="WE_339" type="typeStraight" route="WE" depart="604" />
    <vehicle id="EW_340" type="typeStraight" route="EW" depart="604" />
    <vehicle id="WE_341" type="typeStraight" route="WE" depart="605" />
    <vehicle id="WN_342" type="typeTurn" route="WN" depart="606" />
    <vehicle id="SN_343" type="typeStraight" route="SN" depart="608" />
    <vehicle id="SN_344" type="typeStraight" route="SN" depart="609" />
    <vehicle id="SN_345" type="typeStraight" route="SN" depart="610" />
    <vehicle id="NE_346" type="typeTurn" route="NE" depart="617" />
    <vehicle id="EW_347" type="typeStraight" route="EW" depart="618" />
    <vehicle id="NE_348" type="typeTurn" route="NE" depart="619" />
    <vehicle id="ES_349" type="typeTurn" route="ES" depart="619" />
    <vehicle id="ES_350" type="typeTurn" route="ES" depart="621" />
    <vehicle id="NE_351" type="typeTurn" route="NE" depart="626" />
    <vehicle id="SN_352" type="typeStraight" route="SN" depart="626" />
    <vehicle id="WE_353" type="typeStraight" route="WE" depart="627" />
    <vehicle id="SW_354" type="typeTurn" route="SW" depart="628" />
    <vehicle id="NS_355" type="typeStraight" route="NS" depart="629" />
    <vehicle id="WE_356" type="typeStraight" route="WE" depart="632" />
    <vehicle id="ES_357" type="typeTurn" route="ES" depart="633" />
    <vehicle id="WE_358" type="typeStraight" route="WE" depart="635" />
    <vehicle id="EW_359" type="typeStraight" route="EW" depart="637" />
    <vehicle id="WE_360" type="typeStraight" route="WE" depart="638" />
    <vehicle id="SW_361" type="typeTurn" route="SW" depart="640" />
    <vehicle id="WN_362" type="typeTurn" route="WN" depart="641" />
    <vehicle id="WN_363" type="typeTurn" route="WN" depart="642" />
    <vehicle id="NS_364" type="typeStraight" route="NS" depart="647" />
    <vehicle id="NS_365" type="typeStraight" route="NS" depart="652" />
    <vehicle id="WE_366" type="typeStraight" route="WE" depart="653" />
    <vehicle id="WN_367" type="typeTurn" route="WN" depart="655" />
    <vehicle id="WE_368" type="typeStraight" route="WE" depart="656" />
    <vehicle id="SW_369" type="typeTurn" route="SW" depart="659" />
    <vehicle id="WE_370" type="typeStraight" route="WE" depart="659" />
    <vehicle id="WE_371" type="typeStraight" route="WE" depart="665" />
    <vehicle id="ES_372" type="typeTurn" route="ES" depart="666" />
    <vehicle id="WE_373" type="typeStraight" route="WE" depart="667" />
    <vehicle id="ES_374" type="typeTurn" route="ES" depart="667" />
    <vehicle id="SW_375" type="typeTurn" route="SW" depart="669" />
    <vehicle id="SW_376" type="typeTurn" route="SW" depart="674" />
    <vehicle id="NE_377" type="typeTurn" route="NE" depart="675" />
    <vehicle id="NS_378" type="typeStraight" route="NS" depart="678" />
    <vehicle id="ES_379" type="typeTurn" route="ES" depart="678" />
    <vehicle id="SW_380" type="typeTurn" route="SW" depart="682" />
    <vehicle id="ES_381" type="typeTurn" route="ES" depart="682" />
    <vehicle id="ES_382" type="typeTurn" route="ES" depart="684" />
    <vehicle id="WE_383" type="typeStraight" route="WE" depart="687" />
    <vehicle id="ES_384" type="typeTurn" route="ES" depart="689" />
    <vehicle id="EW_385" type="typeStraight" route="EW" depart="691" />
    <vehicle id="WN_386" type="typeTurn" route="WN" depart="692" />
    <vehicle id="EW_387" type="typeStraight" route="EW" depart="692" />
    <vehicle id="NS_388" type="typeStraight" route="NS" depart="693" />
    <vehicle id="SN_389" type="typeStraight" route="SN" depart="694" />
    <vehicle id="ES_390" type="typeTurn" route="ES" depart="694" />
    <vehicle id="SW_391" type="typeTurn" route="SW" depart="695" />
    <vehicle id="SW_392" type="typeTurn" route="SW" depart="699" />
    <vehicle id="NS_393" type="typeStraight" route="NS" depart="700" />
    <vehicle id="SN_394" type="typeStraight" route="SN" depart="700" />
    <vehicle id="NE_395" type="typeTurn" route="NE" depart="702" />
    <vehicle id="NS_396" type="typeStraight" route="NS" depart="703" />
    <vehicle id="SW_397" type="typeTurn" route="SW" depart="705" />
    <vehicle id="SN_398" type="typeStraight" route="SN" depart="706" />
    <vehicle id="WN_399" type="typeTurn" route="WN" depart="710" />
    <vehicle id="SW_400" type="typeTurn" route="SW" depart="714" />
    <vehicle id="WN_401" type="typeTurn" route="WN" depart="714" />
    <vehicle id="NS_402" type="typeStraight" route="NS" depart="715" />
    <vehicle id="NS_403" type="typeStraight" route="NS" depart="716" />
    <vehicle id="WE_404" type="typeStraight" route="WE" depart="717" />
    <vehicle id="EW_405" type="typeStraight" route="EW" depart="718" />
    <vehicle id="NE_406" type="typeTurn" route="NE" depart="719" />
    <vehicle id="SW_407" type="typeTurn" route="SW" depart="720" />
    <vehicle id="WN_408" type="typeTurn" route="WN" depart="721" />
    <vehicle id="EW_409" type="typeStraight" route="EW" depart="723" />
    <vehicle id="WE_410" type="typeStraight" route="WE" depart="725" />
    <vehicle id="SN_411" type="typeStraight" route="SN" depart="728" />
    <vehicle id="ES_412" type="typeTurn" route="ES" depart="730" />
    <vehicle id="WE_413" type="typeStraight" route="WE" depart="732" />
    <vehicle id="SN_414" type="typeStraight" route="SN" depart="733" />
    <vehicle id="ES_415" type="typeTurn" route="ES" depart="734" />
    <vehicle id="ES_416" type="typeTurn" route="ES" depart="737" />
    <vehicle id="WN_417" type="typeTurn" route="WN" depart="738" />
    <vehicle id="SN_418" type="typeStraight" route="SN" depart="743" />
    <vehicle id="NS_419" type="typeStraight" route="NS" depart="745" />
    <vehicle id="EW_420" type="typeStraight" route="EW" depart="745" />
    <vehicle id="ES_421" type="typeTurn" route="ES" depart="745" />