<routes>
        <vType id="typeStraight" accel="1" decel="4.5" sigma="0.5" length="5" minGap="2.5" maxSpeed="13.9" guiShape="passenger"/>
        <vType id="typeTurn" accel="1" decel="4.5" sigma="0.5" length="5" minGap="2.5" maxSpeed="13.9" guiShape="passenger"/>

        <route id="WE" edges="1i 2o" />
        <route id="EW" edges="2i 1o " />
        <route id="NS" edges="4i 3o " />
        <route id="SN" edges="3i 4o " />
        <route id="NE" edges="4i 2o" />
        <route id="ES" edges="2i 3o " />
        <route id="SW" edges="3i 1o " />
        <route id="WN" edges="1i 4o " />
    <vehicle id="SW_0" type="typeTurn" route="SW" depart="2" />
    <vehicle id="WE_1" type="typeStraight" route="WE" depart="12" />
    <vehicle id="WE_2" type="typeStraight" route="WE" depart="15" />
    <vehicle id="EW_3" type="typeStraight" route="EW" depart="15" />
    <vehicle id="WN_4" type="typeTurn" route="WN" depart="33" />
    <vehicle id="SN_5" type="typeStraight" route="SN" depart="36" />
    <vehicle id="NE_6" type="typeTurn" route="NE" depart="37" />
    <vehicle id="WE_7" type="typeStraight" route="WE" depart="40" />
    <vehicle id="EW_8" type="typeStraight" route="EW" depart="42" />
    <vehicle id="NS_9" type="typeStraight" route="NS" depart="46" />
    <vehicle id="SN_10" type="typeStraight" route="SN" depart="49" />
    <vehicle id="ES_11" type="typeTurn" route="ES" depart="51" />
    <vehicle id="SW_12" type="typeTurn" route="SW" depart="53" />
    <vehicle id="NE_13" type="typeTurn" route="NE" depart="60" />
    <vehicle id="EW_14" type="typeStraight" route="EW" depart="64" />
    <vehicle id="EW_15" type="typeStraight" route="EW" depart="74" />
    <vehicle id="WN_16" type="typeTurn" route="WN" depart="79" />
    <vehicle id="WE_17" type="typeStraight" route="WE" depart="85" />
    <vehicle id="SN_18" type="typeStraight" route="SN" depart="110" />
    <vehicle id="WE_19" type="typeStraight" route="WE" depart="119" />
    <vehicle id="WN_20" type="typeTurn" route="WN" depart="126" />
    <vehicle id="SN_21" type="typeStraight" route="SN" depart="128" />
    <vehicle id="WN_22" type="typeTurn" route="WN" depart="141" />
    <vehicle id="NS_23" type="typeStraight" route="NS" depart="146" />
    <vehicle id="EW_24" type="typeStraight" route="EW" depart="146" />
    <vehicle id="ES_25" type="typeTurn" route="ES" depart="173" />
    <vehicle id="WN_26" type="typeTurn" route="WN" depart="178" />
    <vehicle id="ES_27" type="typeTurn" route="ES" depart="225" />
    <vehicle id="WE_28" type="typeStraight" route="WE" depart="229" />
    <vehicle id="NE_29" type="typeTurn" route="NE" depart="245" />
    <vehicle id="NS_30" type="typeStraight" route="NS" depart="264" />
    <vehicle id="NS_31" type="typeStraight" route="NS" depart="265" />
    <vehicle id="EW_32" type="typeStraight" route="EW" depart="265" />
    <vehicle id="NE_33" type="typeTurn" route="NE" depart="269" />
    <vehicle id="WN_34" type="typeTurn" route="WN" depart="277" />
    <vehicle id="EW_35" type="typeStraight" route="EW" depart="292" />
    <vehicle id="SN_36" type="typeStraight" route="SN" depart="303" />
    <vehicle id="WE_37" type="typeStraight" route="WE" depart="314" />
    <vehicle id="ES_38" type="typeTurn" route="ES" depart="317" />
    <vehicle id="SW_39" type="typeTurn" route="SW" depart="320" />
    <vehicle id="NS_40" type="typeStraight" route="NS" depart="321" />
    <vehicle id="SW_41" type="typeTurn" route="SW" depart="323" />
    <vehicle id="WN_42" type="typeTurn" route="WN" depart="329" />
    <vehicle id="ES_43" type="typeTurn" route="ES" depart="341" />
    <vehicle id="WE_44" type="typeStraight" route="WE" depart="343" />
    <vehicle id="SW_45" type="typeTurn" route="SW" depart="344" />
    <vehicle id="WE_46" type="typeStraight" route="WE" depart="354" />
    <vehicle id="WE_47" type="typeStraight" route="WE" depart="365" />
    <vehicle id="WE_48" type="typeStraight" route="WE" depart="366" />
    <vehicle id="EW_49" type="typeStraight" route="EW" depart="373" />
    <vehicle id="WN_50" type="typeTurn" route="WN" depart="392" />
    <vehicle id="WE_51" type="typeStraight" route="WE" depart="400" />
    <vehicle id="ES_52" type="typeTurn" route="ES" depart="400" />
    <vehicle id="SW_53" type="typeTurn" route="SW" depart="401" />
    <vehicle id="NE_54" type="typeTurn" route="NE" depart="414" />
    <vehicle id="WN_55" type="typeTurn" route="WN" depart="421" />
    <vehicle id="EW_56" type="typeStraight" route="EW" depart="425" />
    <vehicle id="WN_57" type="typeTurn" route="WN" depart="439" />
    <vehicle id="ES_58" type="typeTurn" route="ES" depart="456" />
    <vehicle id="NS_59" type="typeStraight" route="NS" depart="464" />
    <vehicle id="SW_60" type="typeTurn" route="SW" depart="467" />
    <vehicle id="EW_61" type="typeStraight" route="EW" depart="470" />
    <vehicle id="NE_62" type="typeTurn" route="NE" depart="475" />
    <vehicle id="WE_63" type="typeStraight" route="WE" depart="480" />
    <vehicle id="EW_64" type="typeStraight" route="EW" depart="495" />
    <vehicle id="NE_65" type="typeTurn" route="NE" depart="504" />
    <vehicle id="ES_66" type="typeTurn" route="ES" depart="508" />
    <vehicle id="WN_67" type="typeTurn" route="WN" depart="512" />
    <vehicle id="NS_68" type="typeStraight" route="NS" depart="519" />
    <vehicle id="WE_69" type="typeStraight" route="WE" depart="532" />
    <vehicle id="EW_70" type="typeStraight" route="EW" depart="543" />
    <vehicle id="SW_71" type="typeTurn" route="SW" depart="544" />
    <vehicle id="ES_72" type="typeTurn" route="ES" depart="544" />
    <vehicle id="SW_73" type="typeTurn" route="SW" depart="545" />
    <vehicle id="ES_74" type="typeTurn" route="ES" depart="548" />
    <vehicle id="SW_75" type="typeTurn" route="SW" depart="556" />
    <vehicle id="NE_76" type="typeTurn" route="NE" depart="562" />
    <vehicle id="WN_77" type="typeTurn" route="WN" depart="562" />
    <vehicle id="ES_78" type="typeTurn" route="ES" depart="585" />
    <vehicle id="EW_79" type="typeStraight" route="EW" depart="588" />
    <vehicle id="SN_80" type="typeStraight" route="SN" depart="591" />
    <vehicle id="EW_81" type="typeStraight" route="EW" depart="593" />
    <vehicle id="EW_82" type="typeStraight" route="EW" depart="604" />
    <vehicle id="NE_83" type="typeTurn" route="NE" depart="617" />
    <vehicle id="NE_84" type="typeTurn" route="NE" depart="626" />
    <vehicle id="WE_85" type="typeStraight" route="WE" depart="627" />
    <vehicle id="SW_86" type="typeTurn" route="SW" depart="628" />
    <vehicle id="WE_87" type="typeStraight" route="WE" depart="635" />
    <vehicle id="EW_88" type="typeStraight" route="EW" depart="637" />
    <vehicle id="WE_89" type="typeStraight" route="WE" depart="653" />
    <vehicle id="WN_90" type="typeTurn" route="WN" depart="655" />
    <vehicle id="WE_91" type="typeStraight" route="WE" depart="659" />
    <vehicle id="ES_92" type="typeTurn" route="ES" depart="678" />
    <vehicle id="WE_93" type="typeStraight" route="WE" depart="687" />
    <vehicle id="SN_94" type="typeStraight" route="SN" depart="700" />
    <vehicle id="NS_95" type="typeStraight" route="NS" depart="703" />
    <vehicle id="SW_96" type="typeTurn" route="SW" depart="714" />
    <vehicle id="WE_97" type="typeStraight" route="WE" depart="717" />
    <vehicle id="ES_98" type="typeTurn" route="ES" depart="734" />
    <vehicle id="WN_99" type="typeTurn" route="WN" depart="738" />
    <vehicle id="ES_100" type="typeTurn" route="ES" depart="745" />
    <vehicle id="WN_101" type="typeTurn" route="WN" depart="752" />
    <vehicle id="EW_102" type="typeStraight" route="EW" depart="761" />
    <vehicle id="SN_103" type="typeStraight" route="SN" depart="829" />
    <vehicle id="ES_104" type="typeTurn" route="ES" depart="841" />
    <vehicle id="ES_105" type="typeTurn" route="ES" depart="845" />
    <vehicle id="SW_106" type="typeTurn" route="SW" depart="847" />
    <vehicle id="ES_107" type="typeTurn" route="ES" depart="850" />
    <vehicle id="SN_108" type="typeStraight" route="SN" depart="864" />
    <vehicle id="SN_109" type="typeStraight" route="SN" depart="867" />
    <vehicle id="EW_110" type="typeStraight" route="EW" depart="896" />
    <vehicle id="SW_111" type="typeTurn" route="SW" depart="897" />
    <vehicle id="WE_112" type="typeStraight" route="WE" depart="901" />
    <vehicle id="ES_113" type="typeTurn" route="ES" depart="901" />
    <vehicle id="EW_114" type="typeStraight" route="EW" depart="904" />
    <vehicle id="EW_115" type="typeStraight" route="EW" depart="912" />
    <vehicle id="ES_116" type="typeTurn" route="ES" depart="923" />
    <vehicle id="SN_117" type="typeStraight" route="SN" depart="927" />
    <vehicle id="ES_118" type="typeTurn" route="ES" depart="930" />
    <vehicle id="WN_119" type="typeTurn" route="WN" depart="944" />
    <vehicle id="EW_120" type="typeStraight" route="EW" depart="948" />
    <vehicle id="ES_121" type="typeTurn" route="ES" depart="956" />
    <vehicle id="EW_122" type="typeStraight" route="EW" depart="965" />
    <vehicle id="WN_123" type="typeTurn" route="WN" depart="968" />
    <vehicle id="NE_124" type="typeTurn" route="NE" depart="982" />
    <vehicle id="WN_125" type="typeTurn" route="WN" depart="988" />
    <vehicle id="ES_126" type="typeTurn" route="ES" depart="993" />
    <vehicle id="EW_127" type="typeStraight" route="EW" depart="997" />
    <vehicle id="NE_128" type="typeTurn" route="NE" depart="1002" />
    <vehicle id="EW_129" type="typeStraight" route="EW" depart="1002" />
    <vehicle id="WE_130" type="typeStraight" route="WE" depart="1007" />
    <vehicle id="WE_131" type="typeStraight" route="WE" depart="1017" />
    <vehicle id="SW_132" type="typeTurn" route="SW" depart="1027" />
    <vehicle id="WE_133" type="typeStraight" route="WE" depart="1032" />
    <vehicle id="WN_134" type="typeTurn" route="WN" depart="1034" />
    <vehicle id="WE_135" type="typeStraight" route="WE" depart="1038" />
    <vehicle id="SN_136" type="typeStraight" route="SN" depart="1046" />
    <vehicle id="EW_137" type="typeStraight" route="EW" depart="1049" />
    <vehicle id="ES_138" type="typeTurn" route="ES" depart="1061" />
    <vehicle id="WN_139" type="typeTurn" route="WN" depart="1076" />
    <vehicle id="ES_140" type="typeTurn" route="ES" depart="1087" />
    <vehicle id="ES_141" type="typeTurn" route="ES" depart="1093" />
    <vehicle id="ES_142" type="typeTurn" route="ES" depart="1095" />
    <vehicle id="EW_143" type="typeStraight" route="EW" depart="1104" />
    <vehicle id="WN_144" type="typeTurn" route="WN" depart="1109" />
    <vehicle id="ES_145" type="typeTurn" route="ES" depart="1109" />
    <vehicle id="ES_146" type="typeTurn" route="ES" depart="1122" />
    <vehicle id="WN_147" type="typeTurn" route="WN" depart="1134" />
    <vehicle id="NE_148" type="typeTurn" route="NE" depart="1143" />
    <vehicle id="WN_149" type="typeTurn" route="WN" depart="1145" />
    <vehicle id="EW_150" type="typeStraight" route="EW" depart="1147" />
    <vehicle id="WN_151" type="typeTurn" route="WN" depart="1154" />
    <vehicle id="WN_152" type="typeTurn" route="WN" depart="1166" />
    <vehicle id="WE_153" type="typeStraight" route="WE" depart="1168" />
    <vehicle id="WE_154" type="typeStraight" route="WE" depart="1190" />
    <vehicle id="EW_155" type="typeStraight" route="EW" depart="1201" />
    <vehicle id="WE_156" type="typeStraight" route="WE" depart="1205" />
    <vehicle id="ES_157" type="typeTurn" route="ES" depart="1206" />
    <vehicle id="ES_158" type="typeTurn" route="ES" depart="1212" />
    <vehicle id="ES_159" type="typeTurn" route="ES" depart="1213" />
    <vehicle id="NE_160" type="typeTurn" route="NE" depart="1222" />
    <vehicle id="WN_161" type="typeTurn" route="WN" depart="1225" />
    <vehicle id="NE_162" type="typeTurn" route="NE" depart="1226" />
    <vehicle id="WN_163" type="typeTurn" route="WN" depart="1252" />
    <vehicle id="EW_164" type="typeStraight" route="EW" depart="1268" />
    <vehicle id="WE_165" type="typeStraight" route="WE" depart="1287" />
    <vehicle id="WN_166" type="typeTurn" route="WN" depart="1298" />
    <vehicle id="ES_167" type="typeTurn" route="ES" depart="1303" />
    <vehicle id="EW_168" type="typeStraight" route="EW" depart="1305" />
    <vehicle id="EW_169" type="typeStraight" route="EW" depart="1319" />
    <vehicle id="ES_170" type="typeTurn" route="ES" depart="1322" />
    <vehicle id="SN_171" type="typeStraight" route="SN" depart="1327" />
    <vehicle id="NS_172" type="typeStraight" route="NS" depart="1334" />
    <vehicle id="ES_173" type="typeTurn" route="ES" depart="1345" />
    <vehicle id="SN_174" type="typeStraight" route="SN" depart="1346" />
    <vehicle id="WE_175" type="typeStraight" route="WE" depart="1351" />
    <vehicle id="WN_176" type="typeTurn" route="WN" depart="1354" />
    <vehicle id="SN_177" type="typeStraight" route="SN" depart="1364" />
    <vehicle id="SN_178" type="typeStraight" route="SN" depart="1370" />
    <vehicle id="EW_179" type="typeStraight" route="EW" depart="1378" />
    <vehicle id="WN_180" type="typeTurn" route="WN" depart="1384" />
    <vehicle id="ES_181" type="typeTurn" route="ES" depart="1388" />
    <vehicle id="EW_182" type="typeStraight" route="EW" depart="1394" />
    <vehicle id="EW_183" type="typeStraight" route="EW" depart="1409" />
    <vehicle id="WE_184" type="typeStraight" route="WE" depart="1411" />
    <vehicle id="WE_185" type="typeStraight" route="WE" depart="1430" />
    <vehicle id="WE_186" type="typeStraight" route="WE" depart="1439" />
    <vehicle id="ES_187" type="typeTurn" route="ES" depart="1445" />
    <vehicle id="WN_188" type="typeTurn" route="WN" depart="1453" />
    <vehicle id="ES_189" type="typeTurn" route="ES" depart="1453" />
    <vehicle id="SW_190" type="typeTurn" route="SW" depart="1462" />
    <vehicle id="EW_191" type="typeStraight" route="EW" depart="1469" />
    <vehicle id="NE_192" type="typeTurn" route="NE" depart="1487" />
    <vehicle id="ES_193" type="typeTurn" route="ES" depart="1512" />
    <vehicle id="ES_194" type="typeTurn" route="ES" depart="1522" />
    <vehicle id="ES_195" type="typeTurn" route="ES" depart="1527" />
    <vehicle id="ES_196" type="typeTurn" route="ES" depart="1528" />
    <vehicle id="ES_197" type="typeTurn" route="ES" depart="1543" />
    <vehicle id="ES_198" type="typeTurn" route="ES" depart="1561" />
    <vehicle id="EW_199" type="typeStraight" route="EW" depart="1570" />
    <vehicle id="WN_200" type="typeTurn" route="WN" depart="1575" />
    <vehicle id="WN_201" type="typeTurn" route="WN" depart="1586" />
    <vehicle id="EW_202" type="typeStraight" route="EW" depart="1586" />
    <vehicle id="NS_203" type="typeStraight" route="NS" depart="1589" />
    <vehicle id="NE_204" type="typeTurn" route="NE" depart="1591" />
    <vehicle id="WE_205" type="typeStraight" route="WE" depart="1595" />
    <vehicle id="WN_206" type="typeTurn" route="WN" depart="1599" />
    <vehicle id="WN_207" type="typeTurn" route="WN" depart="1601" />
    <vehicle id="WE_208" type="typeStraight" route="WE" depart="1614" />
    <vehicle id="WE_209" type="typeStraight" route="WE" depart="1624" />
    <vehicle id="EW_210" type="typeStraight" route="EW" depart="1625" />
    <vehicle id="WN_211" type="typeTurn" route="WN" depart="1633" />
    <vehicle id="SN_212" type="typeStraight" route="SN" depart="1634" />
    <vehicle id="EW_213" type="typeStraight" route="EW" depart="1639" />
    <vehicle id="EW_214" type="typeStraight" route="EW" depart="1651" />
    <vehicle id="SW_215" type="typeTurn" route="SW" depart="1663" />
    <vehicle id="NE_216" type="typeTurn" route="NE" depart="1671" />
    <vehicle id="SW_217" type="typeTurn" route="SW" depart="1687" />
    <vehicle id="SN_218" type="typeStraight" route="SN" depart="1691" />
    <vehicle id="EW_219" type="typeStraight" route="EW" depart="1708" />
    <vehicle id="WN_220" type="typeTurn" route="WN" depart="1711" />
    <vehicle id="WN_221" type="typeTurn" route="WN" depart="1716" />
    <vehicle id="ES_222" type="typeTurn" route="ES" depart="1720" />
    <vehicle id="SN_223" type="typeStraight" route="SN" depart="1726" />
    <vehicle id="ES_224" type="typeTurn" route="ES" depart="1736" />
    <vehicle id="ES_225" type="typeTurn" route="ES" depart="1737" />
    <vehicle id="WN_226" type="typeTurn" route="WN" depart="1749" />
    <vehicle id="NS_227" type="typeStraight" route="NS" depart="1752" />
    <vehicle id="WN_228" type="typeTurn" route="WN" depart="1761" />
    <vehicle id="NS_229" type="typeStraight" route="NS" depart="1764" />
    <vehicle id="SN_230" type="typeStraight" route="SN" depart="1771" />
    <vehicle id="SN_231" type="typeStraight" route="SN" depart="1784" />
    <vehicle id="ES_232" type="typeTurn" route="ES" depart="1789" />
    <vehicle id="WN_233" type="typeTurn" route="WN" depart="1799" />
    <vehicle id="SW_234" type="typeTurn" route="SW" depart="1800" />
    <vehicle id="NE_235" type="typeTurn" route="NE" depart="1809" />
    <vehicle id="EW_236" type="typeStraight" route="EW" depart="1829" />
    <vehicle id="WE_237" type="typeStraight" route="WE" depart="1833" />
    <vehicle id="SW_238" type="typeTurn" route="SW" depart="1835" />
    <vehicle id="ES_239" type="typeTurn" route="ES" depart="1850" />
    <vehicle id="WE_240" type="typeStraight" route="WE" depart="1853" />
    <vehicle id="ES_241" type="typeTurn" route="ES" depart="1859" />
    <vehicle id="WN_242" type="typeTurn" route="WN" depart="1866" />
    <vehicle id="EW_243" type="typeStraight" route="EW" depart="1873" />
    <vehicle id="WE_244" type="typeStraight" route="WE" depart="1876" />
    <vehicle id="ES_245" type="typeTurn" route="ES" depart="1876" />
    <vehicle id="EW_246" type="typeStraight" route="EW" depart="1882" />
    <vehicle id="WE_247" type="typeStraight" route="WE" depart="1890" />
    <vehicle id="SN_248" type="typeStraight" route="SN" depart="1904" />
    <vehicle id="WN_249" type="typeTurn" route="WN" depart="1905" />
    <vehicle id="WN_250" type="typeTurn" route="WN" depart="1908" />
    <vehicle id="WE_251" type="typeStraight" route="WE" depart="1916" />
    <vehicle id="EW_252" type="typeStraight" route="EW" depart="1925" />
    <vehicle id="EW_253" type="typeStraight" route="EW" depart="1940" />
    <vehicle id="ES_254" type="typeTurn" route="ES" depart="1943" />
    <vehicle id="SN_255" type="typeStraight" route="SN" depart="1946" />
    <vehicle id="EW_256" type="typeStraight" route="EW" depart="1946" />
    <vehicle id="WN_257" type="typeTurn" route="WN" depart="1947" />
    <vehicle id="ES_258" type="typeTurn" route="ES" depart="1966" />
    <vehicle id="EW_259" type="typeStraight" route="EW" depart="1967" />
    <vehicle id="EW_260" type="typeStraight" route="EW" depart="1968" />
    <vehicle id="ES_261" type="typeTurn" route="ES" depart="1975" />
    <vehicle id="EW_262" type="typeStraight" route="EW" depart="1978" />
    <vehicle id="WN_263" type="typeTurn" route="WN" depart="1982" />
    <vehicle id="ES_264" type="typeTurn" route="ES" depart="1992" />
    <vehicle id="SN_265" type="typeStraight" route="SN" depart="1994" />
    <vehicle id="EW_266" type="typeStraight" route="EW" depart="1999" />
    <vehicle id="ES_267" type="typeTurn" route="ES" depart="2012" />
    <vehicle id="EW_268" type="typeStraight" route="EW" depart="2021" />
    <vehicle id="WN_269" type="typeTurn" route="WN" depart="2028" />
    <vehicle id="WE_270" type="typeStraight" route="WE" depart="2042" />
    <vehicle id="ES_271" type="typeTurn" route="ES" depart="2051" />
    <vehicle id="ES_272" type="typeTurn" route="ES" depart="2063" />
    <vehicle id="EW_273" type="typeStraight" route="EW" depart="2075" />
    <vehicle id="WN_274" type="typeTurn" route="WN" depart="2085" />
    <vehicle id="WE_275" type="typeStraight" route="WE" depart="2089" />
    <vehicle id="WE_276" type="typeStraight" route="WE" depart="2091" />
    <vehicle id="WN_277" type="typeTurn" route="WN" depart="2100" />
    <vehicle id="ES_278" type="typeTurn" route="ES" depart="2119" />
    <vehicle id="ES_279" type="typeTurn" route="ES" depart="2120" />
    <vehicle id="NS_280" type="typeStraight" route="NS" depart="2122" />
    <vehicle id="SN_281" type="typeStraight" route="SN" depart="2127" />
    <vehicle id="SW_282" type="typeTurn" route="SW" depart="2128" />
    <vehicle id="NE_283" type="typeTurn" route="NE" depart="2135" />
    <vehicle id="SW_284" type="typeTurn" route="SW" depart="2139" />
    <vehicle id="EW_285" type="typeStraight" route="EW" depart="2144" />
    <vehicle id="NS_286" type="typeStraight" route="NS" depart="2145" />
    <vehicle id="WN_287" type="typeTurn" route="WN" depart="2155" />
    <vehicle id="WE_288" type="typeStraight" route="WE" depart="2160" />
    <vehicle id="EW_289" type="typeStraight" route="EW" depart="2167" />
    <vehicle id="EW_290" type="typeStraight" route="EW" depart="2185" />
    <vehicle id="WN_291" type="typeTurn" route="WN" depart="2199" />
    <vehicle id="EW_292" type="typeStraight" route="EW" depart="2215" />
    <vehicle id="NE_293" type="typeTurn" route="NE" depart="2217" />
    <vehicle id="EW_294" type="typeStraight" route="EW" depart="2217" />
    <vehicle id="NE_295" type="typeTurn" route="NE" depart="2226" />
    <vehicle id="NE_296" type="typeTurn" route="NE" depart="2239" />
    <vehicle id="EW_297" type="typeStraight" route="EW" depart="2256" />
    <vehicle id="WN_298" type="typeTurn" route="WN" depart="2260" />
    <vehicle id="NS_299" type="typeStraight" route="NS" depart="2274" />
    <vehicle id="ES_300" type="typeTurn" route="ES" depart="2274" />
    <vehicle id="EW_301" type="typeStraight" route="EW" depart="2275" />
    <vehicle id="SW_302" type="typeTurn" route="SW" depart="2287" />
    <vehicle id="WN_303" type="typeTurn" route="WN" depart="2288" />
    <vehicle id="ES_304" type="typeTurn" route="ES" depart="2295" />
    <vehicle id="SN_305" type="typeStraight" route="SN" depart="2296" />
    <vehicle id="SW_306" type="typeTurn" route="SW" depart="2296" />
    <vehicle id="SN_307" type="typeStraight" route="SN" depart="2297" />
    <vehicle id="ES_308" type="typeTurn" route="ES" depart="2305" />
    <vehicle id="NS_309" type="typeStraight" route="NS" depart="2307" />
    <vehicle id="WN_310" type="typeTurn" route="WN" depart="2312" />
    <vehicle id="NE_311" type="typeTurn" route="NE" depart="2321" />
    <vehicle id="WE_312" type="typeStraight" route="WE" depart="2334" />
    <vehicle id="SW_313" type="typeTurn" route="SW" depart="2346" />
    <vehicle id="WN_314" type="typeTurn" route="WN" depart="2358" />
    <vehicle id="WN_315" type="typeTurn" route="WN" depart="2362" />
    <vehicle id="ES_316" type="typeTurn" route="ES" depart="2366" />
    <vehicle id="NS_317" type="typeStraight" route="NS" depart="2376" />
    <vehicle id="WE_318" type="typeStraight" route="WE" depart="2379" />
    <vehicle id="WN_319" type="typeTurn" route="WN" depart="2382" />
    <vehicle id="EW_320" type="typeStraight" route="EW" depart="2391" />
    <vehicle id="SN_321" type="typeStraight" route="SN" depart="2400" />
    <vehicle id="WE_322" type="typeStraight" route="WE" depart="2403" />
    <vehicle id="NE_323" type="typeTurn" route="NE" depart="2405" />
    <vehicle id="EW_324" type="typeStraight" route="EW" depart="2406" />
    <vehicle id="WN_325" type="typeTurn" route="WN" depart="2414" />
    <vehicle id="SW_326" type="typeTurn" route="SW" depart="2419" />
    <vehicle id="WE_327" type="typeStraight" route="WE" depart="2420" />
    <vehicle id="NS_328" type="typeStraight" route="NS" depart="2422" />
    <vehicle id="ES_329" type="typeTurn" route="ES" depart="2437" />
    <vehicle id="SN_330" type="typeStraight" route="SN" depart="2444" />
    <vehicle id="NE_331" type="typeTurn" route="NE" depart="2455" />
    <vehicle id="WE_332" type="typeStraight" route="WE" depart="2459" />
    <vehicle id="EW_333" type="typeStraight" route="EW" depart="2465" />
    <vehicle id="WN_334" type="typeTurn" route="WN" depart="2466" />
    <vehicle id="SW_335" type="typeTurn" route="SW" depart="2467" />
    <vehicle id="NS_336" type="typeStraight" route="NS" depart="2471" />
    <vehicle id="WE_337" type="typeStraight" route="WE" depart="2474" />
    <vehicle id="ES_338" type="typeTurn" route="ES" depart="2476" />
    <vehicle id="WE_339" type="typeStraight" route="WE" depart="2490" />
    <vehicle id="NE_340" type="typeTurn" route="NE" depart="2499" />
    <vehicle id="NE_341" type="typeTurn" route="NE" depart="2511" />
    <vehicle id="WE_342" type="typeStraight" route="WE" depart="2516" />
    <vehicle id="NE_343" type="typeTurn" route="NE" depart="2517" />
    <vehicle id="EW_344" type="typeStraight" route="EW" depart="2517" />
    <vehicle id="EW_345" type="typeStraight" route="EW" depart="2520" />
    <vehicle id="WN_346" type="typeTurn" route="WN" depart="2524" />
    <vehicle id="NS_347" type="typeStraight" route="NS" depart="2551" />
    <vehicle id="SW_348" type="typeTurn" route="SW" depart="2564" />
    <vehicle id="ES_349" type="typeTurn" route="ES" depart="2565" />
    <vehicle id="WN_350" type="typeTurn" route="WN" depart="2571" />
    <vehicle id="ES_351" type="typeTurn" route="ES" depart="2586" />
    <vehicle id="SN_352" type="typeStraight" route="SN" depart="2588" />
    <vehicle id="EW_353" type="typeStraight" route="EW" depart="2590" />
    <vehicle id="SN_354" type="typeStraight" route="SN" depart="2593" />
    <vehicle id="ES_355" type="typeTurn" route="ES" depart="2596" />
    <vehicle id="EW_356" type="typeStraight" route="EW" depart="2599" />
    <vehicle id="NE_357" type="typeTurn" route="NE" depart="2602" />
    <vehicle id="SN_358" type="typeStraight" route="SN" depart="2605" />
    <vehicle id="WE_359" type="typeStraight" route="WE" depart="2612" />
    <vehicle id="NE_360" type="typeTurn" route="NE" depart="2628" />
    <vehicle id="WN_361" type="typeTurn" route="WN" depart="2629" />
    <vehicle id="SN_362" type="typeStraight" route="SN" depart="2633" />
    <vehicle id="WN_363" type="typeTurn" route="WN" depart="2637" />
    <vehicle id="ES_364" type="typeTurn" route="ES" depart="2639" />
    <vehicle id="ES_365" type="typeTurn" route="ES" depart="2640" />
    <vehicle id="EW_366" type="typeStraight" route="EW" depart="2641" />
    <vehicle id="WE_367" type="typeStraight" route="WE" depart="2643" />
    <vehicle id="EW_368" type="typeStraight" route="EW" depart="2651" />
    <vehicle id="NS_369" type="typeStraight" route="NS" depart="2658" />
    <vehicle id="ES_370" type="typeTurn" route="ES" depart="2658" />
    <vehicle id="EW_371" type="typeStraight" route="EW" depart="2664" />
    <vehicle id="ES_372" type="typeTurn" route="ES" depart="2668" />
    <vehicle id="ES_373" type="typeTurn" route="ES" depart="2669" />
    <vehicle id="SN_374" type="typeStraight" route="SN" depart="2676" />
    <vehicle id="WN_375" type="typeTurn" route="WN" depart="2677" />
    <vehicle id="WE_376" type="typeStraight" route="WE" depart="2684" />
    <vehicle id="WN_377" type="typeTurn" route="WN" depart="2686" />
    <vehicle id="WN_378" type="typeTurn" route="WN" depart="2689" />
    <vehicle id="ES_379" type="typeTurn" route="ES" depart="2706" />
    <vehicle id="NE_380" type="typeTurn" route="NE" depart="2708" />
    <vehicle id="ES_381" type="typeTurn" route="ES" depart="2711" />
    <vehicle id="EW_382" type="typeStraight" route="EW" depart="2718" />
    <vehicle id="ES_383" type="typeTurn" route="ES" depart="2720" />
    <vehicle id="EW_384" type="typeStraight" route="EW" depart="2722" />
    <vehicle id="ES_385" type="typeTurn" route="ES" depart="2727" />
    <vehicle id="NE_386" type="typeTurn" route="NE" depart="2772" />
    <vehicle id="EW_387" type="typeStraight" route="EW" depart="2782" />
    <vehicle id="WE_388" type="typeStraight" route="WE" depart="2785" />
    <vehicle id="WN_389" type="typeTurn" route="WN" depart="2785" />
    <vehicle id="WN_390" type="typeTurn" route="WN" depart="2788" />
    <vehicle id="SW_391" type="typeTurn" route="SW" depart="2790" />
    <vehicle id="WN_392" type="typeTurn" route="WN" depart="2791" />
    <vehicle id="ES_393" type="typeTurn" route="ES" depart="2792" />
    <vehicle id="WN_394" type="typeTurn" route="WN" depart="2794" />
    <vehicle id="WE_395" type="typeStraight" route="WE" depart="2800" />
    <vehicle id="NE_396" type="typeTurn" route="NE" depart="2815" />
    <vehicle id="EW_397" type="typeStraight" route="EW" depart="2819" />
    <vehicle id="ES_398" type="typeTurn" route="ES" depart="2826" />
    <vehicle id="ES_399" type="typeTurn" route="ES" depart="2833" />
    <vehicle id="SW_400" type="typeTurn" route="SW" depart="2834" />
    <vehicle id="NE_401" type="typeTurn" route="NE" depart="2847" />
    <vehicle id="WE_402" type="typeStraight" route="WE" depart="2848" />
    <vehicle id="NE_403" type="typeTurn" route="NE" depart="2855" />
    <vehicle id="ES_404" type="typeTurn" route="ES" depart="2856" />
    <vehicle id="EW_405" type="typeStraight" route="EW" depart="2860" />
    <vehicle id="WN_406" type="typeTurn" route="WN" depart="2862" />
    <vehicle id="ES_407" type="typeTurn" route="ES" depart="2867" />
    <vehicle id="WN_408" type="typeTurn" route="WN" depart="2869" />
    <vehicle id="WE_409" type="typeStraight" route="WE" depart="2870" />
    <vehicle id="SN_410" type="typeStraight" route="SN" depart="2878" />
    <vehicle id="EW_411" type="typeStraight" route="EW" depart="2879" />
    <vehicle id="SN_412" type="typeStraight" route="SN" depart="2881" />
    <vehicle id="ES_413" type="typeTurn" route="ES" depart="2901" />
    <vehicle id="SN_414" type="typeStraight" route="SN" depart="2902" />
    <vehicle id="WE_415" type="typeStraight" route="WE" depart="2904" />
    <vehicle id="NE_416" type="typeTurn" route="NE" depart="2907" />
    <vehicle id="NE_417" type="typeTurn" route="NE" depart="2912" />