<routes>
        <vType id="typeStraight" accel="1" decel="4.5" sigma="0.5" length="5" minGap="2.5" maxSpeed="13.9" guiShape="passenger"/>
        <vType id="typeTurn" accel="1" decel="4.5" sigma="0.5" length="5" minGap="2.5" maxSpeed="13.9" guiShape="passenger"/>

        <route id="WE" edges="1i 2o" />
        <route id="EW" edges="2i 1o " />
        <route id="NS" edges="4i 3o " />
        <route id="SN" edges="3i 4o " />
        <route id="NE" edges="4i 2o" />
        <route id="ES" edges="2i 3o " />
        <route id="SW" edges="3i 1o " />
        <route id="WN" edges="1i 4o " />
    <vehicle id="NE_0" type="typeTurn" route="NE" depart="0" />
    <vehicle id="NE_1" type="typeTurn" route="NE" depart="1" />
    <vehicle id="WE_2" type="typeStraight" route="WE" depart="1" />
    <vehicle id="SW_3" type="typeTurn" route="SW" depart="2" />
    <vehicle id="NE_4" type="typeTurn" route="NE" depart="5" />
    <vehicle id="SW_5" type="typeTurn" route="SW" depart="8" />
    <vehicle id="NE_6" type="typeTurn" route="NE" depart="11" />
    <vehicle id="EW_7" type="typeStraight" route="EW" depart="11" />
    <vehicle id="WE_8" type="typeStraight" route="WE" depart="12" />
    <vehicle id="WE_9" type="typeStraight" route="WE" depart="15" />
    <vehicle id="EW_10" type="typeStraight" route="EW" depart="15" />
    <vehicle id="WN_11" type="typeTurn" route="WN" depart="20" />
    <vehicle id="WN_12" type="typeTurn" route="WN" depart="24" />
    <vehicle id="ES_13" type="typeTurn" route="ES" depart="25" />
    <vehicle id="WE_14" type="typeStraight" route="WE" depart="31" />
    <vehicle id="WN_15" type="typeTurn" route="WN" depart="33" />
    <vehicle id="SN_16" type="typeStraight" route="SN" depart="36" />
    <vehicle id="NE_17" type="typeTurn" route="NE" depart="37" />
    <vehicle id="WE_18" type="typeStraight" route="WE" depart="40" />
    <vehicle id="EW_19" type="typeStraight" route="EW" depart="42" />
    <vehicle id="NS_20" type="typeStraight" route="NS" depart="46" />
    <vehicle id="ES_21" type="typeTurn" route="ES" depart="46" />
    <vehicle id="SN_22" type="typeStraight" route="SN" depart="49" />
    <vehicle id="ES_23" type="typeTurn" route="ES" depart="51" />
    <vehicle id="SW_24" type="typeTurn" route="SW" depart="53" />
    <vehicle id="WN_25" type="typeTurn" route="WN" depart="58" />
    <vehicle id="NE_26" type="typeTurn" route="NE" depart="60" />
    <vehicle id="WN_27" type="typeTurn" route="WN" depart="61" />
    <vehicle id="WN_28" type="typeTurn" route="WN" depart="62" />
    <vehicle id="NS_29" type="typeStraight" route="NS" depart="63" />
    <vehicle id="WE_30" type="typeStraight" route="WE" depart="63" />
    <vehicle id="EW_31" type="typeStraight" route="EW" depart="64" />
    <vehicle id="NS_32" type="typeStraight" route="NS" depart="66" />
    <vehicle id="ES_33" type="typeTurn" route="ES" depart="67" />
    <vehicle id="WN_34" type="typeTurn" route="WN" depart="73" />
    <vehicle id="EW_35" type="typeStraight" route="EW" depart="74" />
    <vehicle id="WN_36" type="typeTurn" route="WN" depart="79" />
    <vehicle id="WE_37" type="typeStraight" route="WE" depart="85" />
    <vehicle id="ES_38" type="typeTurn" route="ES" depart="87" />
    <vehicle id="WE_39" type="typeStraight" route="WE" depart="89" />
    <vehicle id="NS_40" type="typeStraight" route="NS" depart="91" />
    <vehicle id="NE_41" type="typeTurn" route="NE" depart="102" />
    <vehicle id="SN_42" type="typeStraight" route="SN" depart="103" />
    <vehicle id="SW_43" type="typeTurn" route="SW" depart="106" />
    <vehicle id="WE_44" type="typeStraight" route="WE" depart="106" />
    <vehicle id="NS_45" type="typeStraight" route="NS" depart="108" />
    <vehicle id="SN_46" type="typeStraight" route="SN" depart="110" />
    <vehicle id="WE_47" type="typeStraight" route="WE" depart="113" />
    <vehicle id="WE_48" type="typeStraight" route="WE" depart="119" />
    <vehicle id="EW_49" type="typeStraight" route="EW" depart="120" />
    <vehicle id="SW_50" type="typeTurn" route="SW" depart="124" />
    <vehicle id="WN_51" type="typeTurn" route="WN" depart="126" />
    <vehicle id="SN_52" type="typeStraight" route="SN" depart="128" />
    <vehicle id="NE_53" type="typeTurn" route="NE" depart="129" />
    <vehicle id="SN_54" type="typeStraight" route="SN" depart="129" />
    <vehicle id="ES_55" type="typeTurn" route="ES" depart="129" />
    <vehicle id="NE_56" type="typeTurn" route="NE" depart="131" />
    <vehicle id="ES_57" type="typeTurn" route="ES" depart="131" />
    <vehicle id="WN_58" type="typeTurn" route="WN" depart="132" />
    <vehicle id="WN_59" type="typeTurn" route="WN" depart="140" />
    <vehicle id="WN_60" type="typeTurn" route="WN" depart="141" />
    <vehicle id="SW_61" type="typeTurn" route="SW" depart="142" />
    <vehicle id="WN_62" type="typeTurn" route="WN" depart="143" />
    <vehicle id="WN_63" type="typeTurn" route="WN" depart="145" />
    <vehicle id="NS_64" type="typeStraight" route="NS" depart="146" />
    <vehicle id="EW_65" type="typeStraight" route="EW" depart="146" />
    <vehicle id="EW_66" type="typeStraight" route="EW" depart="147" />
    <vehicle id="NS_67" type="typeStraight" route="NS" depart="148" />
    <vehicle id="NE_68" type="typeTurn" route="NE" depart="148" />
    <vehicle id="NE_69" type="typeTurn" route="NE" depart="149" />
    <vehicle id="WE_70" type="typeStraight" route="WE" depart="154" />
    <vehicle id="WE_71" type="typeStraight" route="WE" depart="155" />
    <vehicle id="WN_72" type="typeTurn" route="WN" depart="157" />
    <vehicle id="SN_73" type="typeStraight" route="SN" depart="165" />
    <vehicle id="WN_74" type="typeTurn" route="WN" depart="171" />
    <vehicle id="EW_75" type="typeStraight" route="EW" depart="171" />
    <vehicle id="SW_76" type="typeTurn" route="SW" depart="172" />
    <vehicle id="ES_77" type="typeTurn" route="ES" depart="173" />
    <vehicle id="NE_78" type="typeTurn" route="NE" depart="175" />
    <vehicle id="NS_79" type="typeStraight" route="NS" depart="176" />
    <vehicle id="WN_80" type="typeTurn" route="WN" depart="178" />
    <vehicle id="WN_81" type="typeTurn" route="WN" depart="179" />
    <vehicle id="EW_82" type="typeStraight" route="EW" depart="180" />
    <vehicle id="SN_83" type="typeStraight" route="SN" depart="181" />
    <vehicle id="WE_84" type="typeStraight" route="WE" depart="181" />
    <vehicle id="NE_85" type="typeTurn" route="NE" depart="186" />
    <vehicle id="NE_86" type="typeTurn" route="NE" depart="188" />
    <vehicle id="ES_87" type="typeTurn" route="ES" depart="192" />
    <vehicle id="WE_88" type="typeStraight" route="WE" depart="194" />
    <vehicle id="EW_89" type="typeStraight" route="EW" depart="197" />
    <vehicle id="NS_90" type="typeStraight" route="NS" depart="201" />
    <vehicle id="NE_91" type="typeTurn" route="NE" depart="201" />
    <vehicle id="NE_92" type="typeTurn" route="NE" depart="207" />
    <vehicle id="ES_93" type="typeTurn" route="ES" depart="207" />
    <vehicle id="ES_94" type="typeTurn" route="ES" depart="209" />
    <vehicle id="ES_95" type="typeTurn" route="ES" depart="211" />
    <vehicle id="NE_96" type="typeTurn" route="NE" depart="215" />
    <vehicle id="ES_97" type="typeTurn" route="ES" depart="216" />
    <vehicle id="SN_98" type="typeStraight" route="SN" depart="217" />
    <vehicle id="ES_99" type="typeTurn" route="ES" depart="225" />
    <vehicle id="WE_100" type="typeStraight" route="WE" depart="229" />
    <vehicle id="SN_101" type="typeStraight" route="SN" depart="234" />
    <vehicle id="WN_102" type="typeTurn" route="WN" depart="234" />
    <vehicle id="WE_103" type="typeStraight" route="WE" depart="238" />
    <vehicle id="WE_104" type="typeStraight" route="WE" depart="240" />
    <vehicle id="WE_105" type="typeStraight" route="WE" depart="241" />
    <vehicle id="EW_106" type="typeStraight" route="EW" depart="241" />
    <vehicle id="SW_107" type="typeTurn" route="SW" depart="242" />
    <vehicle id="NE_108" type="typeTurn" route="NE" depart="245" />
    <vehicle id="SN_109" type="typeStraight" route="SN" depart="245" />
    <vehicle id="SN_110" type="typeStraight" route="SN" depart="247" />
    <vehicle id="WN_111" type="typeTurn" route="WN" depart="247" />
    <vehicle id="NS_112" type="typeStraight" route="NS" depart="248" />
    <vehicle id="EW_113" type="typeStraight" route="EW" depart="248" />
    <vehicle id="WE_114" type="typeStraight" route="WE" depart="250" />
    <vehicle id="SN_115" type="typeStraight" route="SN" depart="256" />
    <vehicle id="EW_116" type="typeStraight" route="EW" depart="262" />
    <vehicle id="ES_117" type="typeTurn" route="ES" depart="262" />
    <vehicle id="NS_118" type="typeStraight" route="NS" depart="264" />
    <vehicle id="NS_119" type="typeStraight" route="NS" depart="265" />
    <vehicle id="SN_120" type="typeStraight" route="SN" depart="265" />
    <vehicle id="EW_121" type="typeStraight" route="EW" depart="265" />
    <vehicle id="NE_122" type="typeTurn" route="NE" depart="269" />
    <vehicle id="SN_123" type="typeStraight" route="SN" depart="270" />
    <vehicle id="ES_124" type="typeTurn" route="ES" depart="270" />
    <vehicle id="WE_125" type="typeStraight" route="WE" depart="271" />
    <vehicle id="NE_126" type="typeTurn" route="NE" depart="275" />
    <vehicle id="WN_127" type="typeTurn" route="WN" depart="277" />
    <vehicle id="EW_128" type="typeStraight" route="EW" depart="278" />
    <vehicle id="SW_129" type="typeTurn" route="SW" depart="290" />
    <vehicle id="SN_130" type="typeStraight" route="SN" depart="291" />
    <vehicle id="EW_131" type="typeStraight" route="EW" depart="292" />
    <vehicle id="ES_132" type="typeTurn" route="ES" depart="296" />
    <vehicle id="SN_133" type="typeStraight" route="SN" depart="303" />
    <vehicle id="WN_134" type="typeTurn" route="WN" depart="304" />
    <vehicle id="WN_135" type="typeTurn" route="WN" depart="306" />
    <vehicle id="EW_136" type="typeStraight" route="EW" depart="309" />
    <vehicle id="WE_137" type="typeStraight" route="WE" depart="314" />
    <vehicle id="NS_138" type="typeStraight" route="NS" depart="317" />
    <vehicle id="ES_139" type="typeTurn" route="ES" depart="317" />
    <vehicle id="SW_140" type="typeTurn" route="SW" depart="320" />
    <vehicle id="NS_141" type="typeStraight" route="NS" depart="321" />
    <vehicle id="EW_142" type="typeStraight" route="EW" depart="321" />
    <vehicle id="SW_143" type="typeTurn" route="SW" depart="323" />
    <vehicle id="WN_144" type="typeTurn" route="WN" depart="329" />
    <vehicle id="EW_145" type="typeStraight" route="EW" depart="329" />
    <vehicle id="NS_146" type="typeStraight" route="NS" depart="330" />
    <vehicle id="WN_147" type="typeTurn" route="WN" depart="332" />
    <vehicle id="ES_148" type="typeTurn" route="ES" depart="335" />
    <vehicle id="NE_149" type="typeTurn" route="NE" depart="338" />
    <vehicle id="ES_150" type="typeTurn" route="ES" depart="341" />
    <vehicle id="WE_151" type="typeStraight" route="WE" depart="343" />
    <vehicle id="SW_152" type="typeTurn" route="SW" depart="344" />
    <vehicle id="WN_153" type="typeTurn" route="WN" depart="348" />
    <vehicle id="ES_154" type="typeTurn" route="ES" depart="350" />
    <vehicle id="NE_155" type="typeTurn" route="NE" depart="352" />
    <vehicle id="NE_156" type="typeTurn" route="NE" depart="353" />
    <vehicle id="WE_157" type="typeStraight" route="WE" depart="354" />
    <vehicle id="WN_158" type="typeTurn" route="WN" depart="354" />
    <vehicle id="WE_159" type="typeStraight" route="WE" depart="355" />
    <vehicle id="SN_160" type="typeStraight" route="SN" depart="356" />
    <vehicle id="NE_161" type="typeTurn" route="NE" depart="357" />
    <vehicle id="ES_162" type="typeTurn" route="ES" depart="357" />
    <vehicle id="WN_163" type="typeTurn" route="WN" depart="360" />
    <vehicle id="WN_164" type="typeTurn" route="WN" depart="363" />
    <vehicle id="WE_165" type="typeStraight" route="WE" depart="365" />
    <vehicle id="WE_166" type="typeStraight" route="WE" depart="366" />
    <vehicle id="ES_167" type="typeTurn" route="ES" depart="370" />
    <vehicle id="EW_168" type="typeStraight" route="EW" depart="373" />
    <vehicle id="WE_169" type="typeStraight" route="WE" depart="375" />
    <vehicle id="SW_170" type="typeTurn" route="SW" depart="377" />
    <vehicle id="NE_171" type="typeTurn" route="NE" depart="379" />
    <vehicle id="SW_172" type="typeTurn" route="SW" depart="380" />
    <vehicle id="EW_173" type="typeStraight" route="EW" depart="382" />
    <vehicle id="ES_174" type="typeTurn" route="ES" depart="387" />
    <vehicle id="NE_175" type="typeTurn" route="NE" depart="391" />
    <vehicle id="EW_176" type="typeStraight" route="EW" depart="391" />
    <vehicle id="WN_177" type="typeTurn" route="WN" depart="392" />
    <vehicle id="SN_178" type="typeStraight" route="SN" depart="396" />
    <vehicle id="ES_179" type="typeTurn" route="ES" depart="397" />
    <vehicle id="WE_180" type="typeStraight" route="WE" depart="400" />
    <vehicle id="ES_181" type="typeTurn" route="ES" depart="400" />
    <vehicle id="SW_182" type="typeTurn" route="SW" depart="401" />
    <vehicle id="NS_183" type="typeStraight" route="NS" depart="407" />
    <vehicle id="WE_184" type="typeStraight" route="WE" depart="411" />
    <vehicle id="NE_185" type="typeTurn" route="NE" depart="414" />
    <vehicle id="EW_186" type="typeStraight" route="EW" depart="415" />
    <vehicle id="NE_187" type="typeTurn" route="NE" depart="416" />
    <vehicle id="WN_188" type="typeTurn" route="WN" depart="420" />
    <vehicle id="NE_189" type="typeTurn" route="NE" depart="421" />
    <vehicle id="WN_190" type="typeTurn" route="WN" depart="421" />
    <vehicle id="NE_191" type="typeTurn" route="NE" depart="425" />
    <vehicle id="EW_192" type="typeStraight" route="EW" depart="425" />
    <vehicle id="ES_193" type="typeTurn" route="ES" depart="427" />
    <vehicle id="EW_194" type="typeStraight" route="EW" depart="428" />
    <vehicle id="WN_195" type="typeTurn" route="WN" depart="432" />
    <vehicle id="WN_196" type="typeTurn" route="WN" depart="433" />
    <vehicle id="WN_197" type="typeTurn" route="WN" depart="437" />
    <vehicle id="WN_198" type="typeTurn" route="WN" depart="439" />
    <vehicle id="ES_199" type="typeTurn" route="ES" depart="440" />
    <vehicle id="NS_200" type="typeStraight" route="NS" depart="443" />
    <vehicle id="NE_201" type="typeTurn" route="NE" depart="446" />
    <vehicle id="NS_202" type="typeStraight" route="NS" depart="453" />
    <vehicle id="WE_203" type="typeStraight" route="WE" depart="454" />
    <vehicle id="ES_204" type="typeTurn" route="ES" depart="456" />
    <vehicle id="EW_205" type="typeStraight" route="EW" depart="460" />
    <vehicle id="NS_206" type="typeStraight" route="NS" depart="464" />
    <vehicle id="SW_207" type="typeTurn" route="SW" depart="466" />
    <vehicle id="SW_208" type="typeTurn" route="SW" depart="467" />
    <vehicle id="WE_209" type="typeStraight" route="WE" depart="467" />
    <vehicle id="WN_210" type="typeTurn" route="WN" depart="469" />
    <vehicle id="EW_211" type="typeStraight" route="EW" depart="470" />
    <vehicle id="EW_212" type="typeStraight" route="EW" depart="471" />
    <vehicle id="NE_213" type="typeTurn" route="NE" depart="475" />
    <vehicle id="WE_214" type="typeStraight" route="WE" depart="480" />
    <vehicle id="SW_215" type="typeTurn" route="SW" depart="483" />
    <vehicle id="WN_216" type="typeTurn" route="WN" depart="483" />
    <vehicle id="SN_217" type="typeStraight" route="SN" depart="488" />
    <vehicle id="NS_218" type="typeStraight" route="NS" depart="489" />
    <vehicle id="NE_219" type="typeTurn" route="NE" depart="494" />
    <vehicle id="SN_220" type="typeStraight" route="SN" depart="494" />
    <vehicle id="EW_221" type="typeStraight" route="EW" depart="494" />
    <vehicle id="EW_222" type="typeStraight" route="EW" depart="495" />
    <vehicle id="WN_223" type="typeTurn" route="WN" depart="499" />
    <vehicle id="SN_224" type="typeStraight" route="SN" depart="501" />
    <vehicle id="NE_225" type="typeTurn" route="NE" depart="504" />
    <vehicle id="ES_226" type="typeTurn" route="ES" depart="508" />
    <vehicle id="WE_227" type="typeStraight" route="WE" depart="509" />
    <vehicle id="ES_228" type="typeTurn" route="ES" depart="509" />
    <vehicle id="EW_229" type="typeStraight" route="EW" depart="511" />
    <vehicle id="SW_230" type="typeTurn" route="SW" depart="512" />
    <vehicle id="WN_231" type="typeTurn" route="WN" depart="512" />
    <vehicle id="EW_232" type="typeStraight" route="EW" depart="513" />
    <vehicle id="WN_233" type="typeTurn" route="WN" depart="515" />
    <vehicle id="EW_234" type="typeStraight" route="EW" depart="517" />
    <vehicle id="NS_235" type="typeStraight" route="NS" depart="519" />
    <vehicle id="ES_236" type="typeTurn" route="ES" depart="522" />
    <vehicle id="WE_237" type="typeStraight" route="WE" depart="524" />
    <vehicle id="NS_238" type="typeStraight" route="NS" depart="526" />
    <vehicle id="WE_239" type="typeStraight" route="WE" depart="532" />
    <vehicle id="WE_240" type="typeStraight" route="WE" depart="535" />
    <vehicle id="SW_241" type="typeTurn" route="SW" depart="537" />
    <vehicle id="EW_242" type="typeStraight" route="EW" depart="538" />
    <vehicle id="WE_243" type="typeStraight" route="WE" depart="540" />
    <vehicle id="EW_244" type="typeStraight" route="EW" depart="543" />
    <vehicle id="SW_245" type="typeTurn" route="SW" depart="544" />
    <vehicle id="ES_246" type="typeTurn" route="ES" depart="544" />
    <vehicle id="SW_247" type="typeTurn" route="SW" depart="545" />
    <vehicle id="ES_248" type="typeTurn" route="ES" depart="548" />
    <vehicle id="NS_249" type="typeStraight" route="NS" depart="549" />
    <vehicle id="WN_250" type="typeTurn" route="WN" depart="551" />
    <vehicle id="NE_251" type="typeTurn" route="NE" depart="553" />
    <vehicle id="SW_252" type="typeTurn" route="SW" depart="554" />
    <vehicle id="SW_253" type="typeTurn" route="SW" depart="556" />
    <vehicle id="WE_254" type="typeStraight" route="WE" depart="556" />
    <vehicle id="WE_255" type="typeStraight" route="WE" depart="561" />
    <vehicle id="NE_256" type="typeTurn" route="NE" depart="562" />
    <vehicle id="WN_257" type="typeTurn" route="WN" depart="562" />
    <vehicle id="WN_258" type="typeTurn" route="WN" depart="564" />
    <vehicle id="WE_259" type="typeStraight" route="WE" depart="566" />
    <vehicle id="SW_260" type="typeTurn" route="SW" depart="568" />
    <vehicle id="WE_261" type="typeStraight" route="WE" depart="568" />
    <vehicle id="NE_262" type="typeTurn" route="NE" depart="575" />
    <vehicle id="NE_263" type="typeTurn" route="NE" depart="576" />
    <vehicle id="SN_264" type="typeStraight" route="SN" depart="580" />
    <vehicle id="EW_265" type="typeStraight" route="EW" depart="580" />
    <vehicle id="ES_266" type="typeTurn" route="ES" depart="582" />
    <vehicle id="WN_267" type="typeTurn" route="WN" depart="584" />
    <vehicle id="ES_268" type="typeTurn" route="ES" depart="585" />
    <vehicle id="EW_269" type="typeStraight" route="EW" depart="586" />
    <vehicle id="WN_270" type="typeTurn" route="WN" depart="587" />
    <vehicle id="SN_271" type="typeStraight" route="SN" depart="588" />
    <vehicle id="EW_272" type="typeStraight" route="EW" depart="588" />
    <vehicle id="NS_273" type="typeStraight" route="NS" depart="590" />
    <vehicle id="SW_274" type="typeTurn" route="SW" depart="590" />
    <vehicle id="SN_275" type="typeStraight" route="SN" depart="591" />
    <vehicle id="NS_276" type="typeStraight" route="NS" depart="592" />
    <vehicle id="EW_277" type="typeStraight" route="EW" depart="593" />
    <vehicle id="ES_278" type="typeTurn" route="ES" depart="595" />
    <vehicle id="WE_279" type="typeStraight" route="WE" depart="604" />
    <vehicle id="EW_280" type="typeStraight" route="EW" depart="604" />
    <vehicle id="WE_281" type="typeStraight" route="WE" depart="605" />
    <vehicle id="WN_282" type="typeTurn" route="WN" depart="606" />
    <vehicle id="SN_283" type="typeStraight" route="SN" depart="608" />
    <vehicle id="SN_284" type="typeStraight" route="SN" depart="609" />
    <vehicle id="NE_285" type="typeTurn" route="NE" depart="617" />
    <vehicle id="EW_286" type="typeStraight" route="EW" depart="618" />
    <vehicle id="NE_287" type="typeTurn" route="NE" depart="619" />
    <vehicle id="ES_288" type="typeTurn" route="ES" depart="619" />
    <vehicle id="ES_289" type="typeTurn" route="ES" depart="621" />
    <vehicle id="NE_290" type="typeTurn" route="NE" depart="626" />
    <vehicle id="SN_291" type="typeStraight" route="SN" depart="626" />
    <vehicle id="WE_292" type="typeStraight" route="WE" depart="627" />
    <vehicle id="SW_293" type="typeTurn" route="SW" depart="628" />
    <vehicle id="NS_294" type="typeStraight" route="NS" depart="629" />
    <vehicle id="WE_295" type="typeStraight" route="WE" depart="632" />
    <vehicle id="ES_296" type="typeTurn" route="ES" depart="633" />
    <vehicle id="WE_297" type="typeStraight" route="WE" depart="635" />
    <vehicle id="EW_298" type="typeStraight" route="EW" depart="637" />
    <vehicle id="WE_299" type="typeStraight" route="WE" depart="638" />
    <vehicle id="SW_300" type="typeTurn" route="SW" depart="640" />
    <vehicle id="WN_301" type="typeTurn" route="WN" depart="641" />
    <vehicle id="WN_302" type="typeTurn" route="WN" depart="642" />
    <vehicle id="NS_303" type="typeStraight" route="NS" depart="647" />
    <vehicle id="WE_304" type="typeStraight" route="WE" depart="653" />
    <vehicle id="WN_305" type="typeTurn" route="WN" depart="655" />
    <vehicle id="WE_306" type="typeStraight" route="WE" depart="656" />
    <vehicle id="WE_307" type="typeStraight" route="WE" depart="659" />
    <vehicle id="WE_308" type="typeStraight" route="WE" depart="665" />
    <vehicle id="ES_309" type="typeTurn" route="ES" depart="666" />
    <vehicle id="WE_310" type="typeStraight" route="WE" depart="667" />
    <vehicle id="ES_311" type="typeTurn" route="ES" depart="667" />
    <vehicle id="SW_312" type="typeTurn" route="SW" depart="669" />
    <vehicle id="SW_313" type="typeTurn" route="SW" depart="674" />
    <vehicle id="NE_314" type="typeTurn" route="NE" depart="675" />
    <vehicle id="NS_315" type="typeStraight" route="NS" depart="678" />
    <vehicle id="ES_316" type="typeTurn" route="ES" depart="678" />
    <vehicle id="ES_317" type="typeTurn" route="ES" depart="682" />
    <vehicle id="ES_318" type="typeTurn" route="ES" depart="684" />
    <vehicle id="WE_319" type="typeStraight" route="WE" depart="687" />
    <vehicle id="ES_320" type="typeTurn" route="ES" depart="689" />
    <vehicle id="EW_321" type="typeStraight" route="EW" depart="691" />
    <vehicle id="WN_322" type="typeTurn" route="WN" depart="692" />
    <vehicle id="EW_323" type="typeStraight" route="EW" depart="692" />
    <vehicle id="NS_324" type="typeStraight" route="NS" depart="693" />
    <vehicle id="SN_325" type="typeStraight" route="SN" depart="694" />
    <vehicle id="ES_326" type="typeTurn" route="ES" depart="694" />
    <vehicle id="SW_327" type="typeTurn" route="SW" depart="695" />
    <vehicle id="SW_328" type="typeTurn" route="SW" depart="699" />
    <vehicle id="NS_329" type="typeStraight" route="NS" depart="700" />
    <vehicle id="SN_330" type="typeStraight" route="SN" depart="700" />
    <vehicle id="NE_331" type="typeTurn" route="NE" depart="702" />
    <vehicle id="NS_332" type="typeStraight" route="NS" depart="703" />
    <vehicle id="SW_333" type="typeTurn" route="SW" depart="705" />
    <vehicle id="SN_334" type="typeStraight" route="SN" depart="706" />
    <vehicle id="WN_335" type="typeTurn" route="WN" depart="710" />
    <vehicle id="SW_336" type="typeTurn" route="SW" depart="714" />
    <vehicle id="WN_337" type="typeTurn" route="WN" depart="714" />
    <vehicle id="NS_338" type="typeStraight" route="NS" depart="715" />
    <vehicle id="NS_339" type="typeStraight" route="NS" depart="716" />
    <vehicle id="WE_340" type="typeStraight" route="WE" depart="717" />
    <vehicle id="EW_341" type="typeStraight" route="EW" depart="718" />
    <vehicle id="NE_342" type="typeTurn" route="NE" depart="719" />
    <vehicle id="WN_343" type="typeTurn" route="WN" depart="721" />
    <vehicle id="EW_344" type="typeStraight" route="EW" depart="723" />
    <vehicle id="WE_345" type="typeStraight" route="WE" depart="725" />
    <vehicle id="ES_346" type="typeTurn" route="ES" depart="730" />
    <vehicle id="WE_347" type="typeStraight" route="WE" depart="732" />
    <vehicle id="SN_348" type="typeStraight" route="SN" depart="733" />
    <vehicle id="ES_349" type="typeTurn" route="ES" depart="734" />
    <vehicle id="ES_350" type="typeTurn" route="ES" depart="737" />
    <vehicle id="WN_351" type="typeTurn" route="WN" depart="738" />
    <vehicle id="NS_352" type="typeStraight" route="NS" depart="745" />
    <vehicle id="EW_353" type="typeStraight" route="EW" depart="745" />
    <vehicle id="ES_354" type="typeTurn" route="ES" depart="745" />
    <vehicle id="WN_355" type="typeTurn" route="WN" depart="747" />
    <vehicle id="WN_356" type="typeTurn" route="WN" depart="752" />
    <vehicle id="WE_357" type="typeStraight" route="WE" depart="756" />
    <vehicle id="SN_358" type="typeStraight" route="SN" depart="758" />
    <vehicle id="EW_359" type="typeStraight" route="EW" depart="758" />
    <vehicle id="EW_360" type="typeStraight" route="EW" depart="761" />
    <vehicle id="SN_361" type="typeStraight" route="SN" depart="765" />
    <vehicle id="EW_362" type="typeStraight" route="EW" depart="766" />
    <vehicle id="ES_363" type="typeTurn" route="ES" depart="768" />
    <vehicle id="ES_364" type="typeTurn" route="ES" depart="774" />
    <vehicle id="EW_365" type="typeStraight" route="EW" depart="775" />
    <vehicle id="EW_366" type="typeStraight" route="EW" depart="778" />
    <vehicle id="ES_367" type="typeTurn" route="ES" depart="778" />
    <vehicle id="SW_368" type="typeTurn" route="SW" depart="779" />
    <vehicle id="ES_369" type="typeTurn" route="ES" depart="780" />
    <vehicle id="SN_370" type="typeStraight" route="SN" depart="781" />
    <vehicle id="ES_371" type="typeTurn" route="ES" depart="784" />
    <vehicle id="NS_372" type="typeStraight" route="NS" depart="788" />
    <vehicle id="NS_373" type="typeStraight" route="NS" depart="793" />
    <vehicle id="SN_374" type="typeStraight" route="SN" depart="794" />
    <vehicle id="SW_375" type="typeTurn" route="SW" depart="800" />
    <vehicle id="SW_376" type="typeTurn" route="SW" depart="804" />
    <vehicle id="WN_377" type="typeTurn" route="WN" depart="806" />
    <vehicle id="EW_378" type="typeStraight" route="EW" depart="806" />
    <vehicle id="NE_379" type="typeTurn" route="NE" depart="816" />
    <vehicle id="WE_380" type="typeStraight" route="WE" depart="818" />
    <vehicle id="EW_381" type="typeStraight" route="EW" depart="820" />
    <vehicle id="WN_382" type="typeTurn" route="WN" depart="823" />
    <vehicle id="SW_383" type="typeTurn" route="SW" depart="824" />
    <vehicle id="WE_384" type="typeStraight" route="WE" depart="827" />
    <vehicle id="SN_385" type="typeStraight" route="SN" depart="829" />
    <vehicle id="WE_386" type="typeStraight" route="WE" depart="830" />
    <vehicle id="ES_387" type="typeTurn" route="ES" depart="830" />
    <vehicle id="SN_388" type="typeStraight" route="SN" depart="835" />
    <vehicle id="WN_389" type="typeTurn" route="WN" depart="837" />
    <vehicle id="ES_390" type="typeTurn" route="ES" depart="837" />
    <vehicle id="ES_391" type="typeTurn" route="ES" depart="841" />
    <vehicle id="NS_392" type="typeStraight" route="NS" depart="844" />
    <vehicle id="SN_393" type="typeStraight" route="SN" depart="844" />
    <vehicle id="ES_394" type="typeTurn" route="ES" depart="845" />
    <vehicle id="SW_395" type="typeTurn" route="SW" depart="847" />
    <vehicle id="ES_396" type="typeTurn" route="ES" depart="849" />
    <vehicle id="ES_397" type="typeTurn" route="ES" depart="850" />
    <vehicle id="NS_398" type="typeStraight" route="NS" depart="855" />
    <vehicle id="NE_399" type="typeTurn" route="NE" depart="855" />
    <vehicle id="ES_400" type="typeTurn" route="ES" depart="855" />
    <vehicle id="NS_401" type="typeStraight" route="NS" depart="857" />
    <vehicle id="SN_402" type="typeStraight" route="SN" depart="859" />
    <vehicle id="NS_403" type="typeStraight" route="NS" depart="864" />
    <vehicle id="SN_404" type="typeStraight" route="SN" depart="864" />
    <vehicle id="EW_405" type="typeStraight" route="EW" depart="865" />
    <vehicle id="SN_406" type="typeStraight" route="SN" depart="867" />
    <vehicle id="SN_407" type="typeStraight" route="SN" depart="869" />
    <vehicle id="EW_408" type="typeStraight" route="EW" depart="870" />
    <vehicle id="EW_409" type="typeStraight" route="EW" depart="871" />
    <vehicle id="SN_410" type="typeStraight" route="SN" depart="872" />
    <vehicle id="SN_411" type="typeStraight" route="SN" depart="880" />
    <vehicle id="SW_412" type="typeTurn" route="SW" depart="881" />
    <vehicle id="NS_413" type="typeStraight" route="NS" depart="888" />
    <vehicle id="NE_414" type="typeTurn" route="NE" depart="889" />
    <vehicle id="SW_415" type="typeTurn" route="SW" depart="889" />
    <vehicle id="WE_416" type="typeStraight" route="WE" depart="891" />
    <vehicle id="WN_417" type="typeTurn" route="WN" depart="891" />
    <vehicle id="WE_418" type="typeStraight" route="WE" depart="893" />
    <vehicle id="EW_419" type="typeStraight" route="EW" depart="896" />
    <vehicle id="SW_420" type="typeTurn" route="SW" depart="897" />
    <vehicle id="WN_421" type="typeTurn" route="WN" depart="898" />