<routes>
        <vType id="typeStraight" accel="1" decel="4.5" sigma="0.5" length="5" minGap="2.5" maxSpeed="13.9" guiShape="passenger"/>
        <vType id="typeTurn" accel="1" decel="4.5" sigma="0.5" length="5" minGap="2.5" maxSpeed="13.9" guiShape="passenger"/>

        <route id="WE" edges="1i 2o" />
        <route id="EW" edges="2i 1o " />
        <route id="NS" edges="4i 3o " />
        <route id="SN" edges="3i 4o " />
        <route id="NE" edges="4i 2o" />
        <route id="ES" edges="2i 3o " />
        <route id="SW" edges="3i 1o " />
        <route id="WN" edges="1i 4o " />
    <vehicle id="NE_0" type="typeTurn" route="NE" depart="0" />
    <vehicle id="ES_1" type="typeTurn" route="ES" depart="0" />
    <vehicle id="NE_2" type="typeTurn" route="NE" depart="1" />
    <vehicle id="WE_3" type="typeStraight" route="WE" depart="1" />
    <vehicle id="SW_4" type="typeTurn" route="SW" depart="2" />
    <vehicle id="NE_5" type="typeTurn" route="NE" depart="5" />
    <vehicle id="WE_6" type="typeStraight" route="WE" depart="5" />
    <vehicle id="SW_7" type="typeTurn" route="SW" depart="8" />
    <vehicle id="NE_8" type="typeTurn" route="NE" depart="11" />
    <vehicle id="EW_9" type="typeStraight" route="EW" depart="11" />
    <vehicle id="WE_10" type="typeStraight" route="WE" depart="12" />
    <vehicle id="WE_11" type="typeStraight" route="WE" depart="15" />
    <vehicle id="EW_12" type="typeStraight" route="EW" depart="15" />
    <vehicle id="EW_13" type="typeStraight" route="EW" depart="16" />
    <vehicle id="WN_14" type="typeTurn" route="WN" depart="20" />
    <vehicle id="ES_15" type="typeTurn" route="ES" depart="22" />
    <vehicle id="WN_16" type="typeTurn" route="WN" depart="24" />
    <vehicle id="ES_17" type="typeTurn" route="ES" depart="25" />
    <vehicle id="EW_18" type="typeStraight" route="EW" depart="28" />
    <vehicle id="WE_19" type="typeStraight" route="WE" depart="31" />
    <vehicle id="WN_20" type="typeTurn" route="WN" depart="33" />
    <vehicle id="ES_21" type="typeTurn" route="ES" depart="35" />
    <vehicle id="SN_22" type="typeStraight" route="SN" depart="36" />
    <vehicle id="NE_23" type="typeTurn" route="NE" depart="37" />
    <vehicle id="WE_24" type="typeStraight" route="WE" depart="40" />
    <vehicle id="EW_25" type="typeStraight" route="EW" depart="42" />
    <vehicle id="NS_26" type="typeStraight" route="NS" depart="46" />
    <vehicle id="ES_27" type="typeTurn" route="ES" depart="46" />
    <vehicle id="SN_28" type="typeStraight" route="SN" depart="49" />
    <vehicle id="EW_29" type="typeStraight" route="EW" depart="50" />
    <vehicle id="ES_30" type="typeTurn" route="ES" depart="51" />
    <vehicle id="SW_31" type="typeTurn" route="SW" depart="53" />
    <vehicle id="WE_32" type="typeStraight" route="WE" depart="57" />
    <vehicle id="WN_33" type="typeTurn" route="WN" depart="58" />
    <vehicle id="NE_34" type="typeTurn" route="NE" depart="60" />
    <vehicle id="WN_35" type="typeTurn" route="WN" depart="61" />
    <vehicle id="WN_36" type="typeTurn" route="WN" depart="62" />
    <vehicle id="NS_37" type="typeStraight" route="NS" depart="63" />
    <vehicle id="WE_38" type="typeStraight" route="WE" depart="63" />
    <vehicle id="WN_39" type="typeTurn" route="WN" depart="64" />
    <vehicle id="EW_40" type="typeStraight" route="EW" depart="64" />
    <vehicle id="NS_41" type="typeStraight" route="NS" depart="66" />
    <vehicle id="ES_42" type="typeTurn" route="ES" depart="67" />
    <vehicle id="WN_43" type="typeTurn" route="WN" depart="68" />
    <vehicle id="ES_44" type="typeTurn" route="ES" depart="72" />
    <vehicle id="WN_45" type="typeTurn" route="WN" depart="73" />
    <vehicle id="EW_46" type="typeStraight" route="EW" depart="74" />
    <vehicle id="WN_47" type="typeTurn" route="WN" depart="79" />
    <vehicle id="WE_48" type="typeStraight" route="WE" depart="85" />
    <vehicle id="ES_49" type="typeTurn" route="ES" depart="87" />
    <vehicle id="WE_50" type="typeStraight" route="WE" depart="89" />
    <vehicle id="NS_51" type="typeStraight" route="NS" depart="91" />
    <vehicle id="ES_52" type="typeTurn" route="ES" depart="96" />
    <vehicle id="NE_53" type="typeTurn" route="NE" depart="102" />
    <vehicle id="SN_54" type="typeStraight" route="SN" depart="103" />
    <vehicle id="SW_55" type="typeTurn" route="SW" depart="106" />
    <vehicle id="WE_56" type="typeStraight" route="WE" depart="106" />
    <vehicle id="NS_57" type="typeStraight" route="NS" depart="108" />
    <vehicle id="SN_58" type="typeStraight" route="SN" depart="110" />
    <vehicle id="WE_59" type="typeStraight" route="WE" depart="113" />
    <vehicle id="WE_60" type="typeStraight" route="WE" depart="119" />
    <vehicle id="EW_61" type="typeStraight" route="EW" depart="120" />
    <vehicle id="WE_62" type="typeStraight" route="WE" depart="122" />
    <vehicle id="ES_63" type="typeTurn" route="ES" depart="123" />
    <vehicle id="SW_64" type="typeTurn" route="SW" depart="124" />
    <vehicle id="WN_65" type="typeTurn" route="WN" depart="126" />
    <vehicle id="SN_66" type="typeStraight" route="SN" depart="128" />
    <vehicle id="NE_67" type="typeTurn" route="NE" depart="129" />
    <vehicle id="SN_68" type="typeStraight" route="SN" depart="129" />
    <vehicle id="ES_69" type="typeTurn" route="ES" depart="129" />
    <vehicle id="NE_70" type="typeTurn" route="NE" depart="131" />
    <vehicle id="ES_71" type="typeTurn" route="ES" depart="131" />
    <vehicle id="WN_72" type="typeTurn" route="WN" depart="132" />
    <vehicle id="EW_73" type="typeStraight" route="EW" depart="132" />
    <vehicle id="WN_74" type="typeTurn" route="WN" depart="135" />
    <vehicle id="WN_75" type="typeTurn" route="WN" depart="136" />
    <vehicle id="EW_76" type="typeStraight" route="EW" depart="136" />
    <vehicle id="WN_77" type="typeTurn" route="WN" depart="140" />
    <vehicle id="WN_78" type="typeTurn" route="WN" depart="141" />
    <vehicle id="SW_79" type="typeTurn" route="SW" depart="142" />
    <vehicle id="WE_80" type="typeStraight" route="WE" depart="143" />
    <vehicle id="WN_81" type="typeTurn" route="WN" depart="143" />
    <vehicle id="WN_82" type="typeTurn" route="WN" depart="145" />
    <vehicle id="NS_83" type="typeStraight" route="NS" depart="146" />
    <vehicle id="EW_84" type="typeStraight" route="EW" depart="146" />
    <vehicle id="EW_85" type="typeStraight" route="EW" depart="147" />
    <vehicle id="NS_86" type="typeStraight" route="NS" depart="148" />
    <vehicle id="NE_87" type="typeTurn" route="NE" depart="148" />
    <vehicle id="NE_88" type="typeTurn" route="NE" depart="149" />
    <vehicle id="ES_89" type="typeTurn" route="ES" depart="149" />
    <vehicle id="WE_90" type="typeStraight" route="WE" depart="154" />
    <vehicle id="WE_91" type="typeStraight" route="WE" depart="155" />
    <vehicle id="EW_92" type="typeStraight" route="EW" depart="155" />
    <vehicle id="WN_93" type="typeTurn" route="WN" depart="157" />
    <vehicle id="WE_94" type="typeStraight" route="WE" depart="164" />
    <vehicle id="SN_95" type="typeStraight" route="SN" depart="165" />
    <vehicle id="WN_96" type="typeTurn" route="WN" depart="171" />
    <vehicle id="EW_97" type="typeStraight" route="EW" depart="171" />
    <vehicle id="SW_98" type="typeTurn" route="SW" depart="172" />
    <vehicle id="ES_99" type="typeTurn" route="ES" depart="173" />
    <vehicle id="NE_100" type="typeTurn" route="NE" depart="175" />
    <vehicle id="NS_101" type="typeStraight" route="NS" depart="176" />
    <vehicle id="WN_102" type="typeTurn" route="WN" depart="178" />
    <vehicle id="WN_103" type="typeTurn" route="WN" depart="179" />
    <vehicle id="EW_104" type="typeStraight" route="EW" depart="180" />
    <vehicle id="SN_105" type="typeStraight" route="SN" depart="181" />
    <vehicle id="WE_106" type="typeStraight" route="WE" depart="181" />
    <vehicle id="WN_107" type="typeTurn" route="WN" depart="184" />
    <vehicle id="NE_108" type="typeTurn" route="NE" depart="186" />
    <vehicle id="NE_109" type="typeTurn" route="NE" depart="188" />
    <vehicle id="ES_110" type="typeTurn" route="ES" depart="192" />
    <vehicle id="WE_111" type="typeStraight" route="WE" depart="194" />
    <vehicle id="EW_112" type="typeStraight" route="EW" depart="197" />
    <vehicle id="NS_113" type="typeStraight" route="NS" depart="201" />
    <vehicle id="NE_114" type="typeTurn" route="NE" depart="201" />
    <vehicle id="NE_115" type="typeTurn" route="NE" depart="207" />
    <vehicle id="ES_116" type="typeTurn" route="ES" depart="207" />
    <vehicle id="ES_117" type="typeTurn" route="ES" depart="209" />
    <vehicle id="ES_118" type="typeTurn" route="ES" depart="211" />
    <vehicle id="NE_119" type="typeTurn" route="NE" depart="215" />
    <vehicle id="ES_120" type="typeTurn" route="ES" depart="216" />
    <vehicle id="SN_121" type="typeStraight" route="SN" depart="217" />
    <vehicle id="ES_122" type="typeTurn" route="ES" depart="225" />
    <vehicle id="WE_123" type="typeStraight" route="WE" depart="229" />
    <vehicle id="EW_124" type="typeStraight" route="EW" depart="232" />
    <vehicle id="SN_125" type="typeStraight" route="SN" depart="234" />
    <vehicle id="WN_126" type="typeTurn" route="WN" depart="234" />
    <vehicle id="ES_127" type="typeTurn" route="ES" depart="237" />
    <vehicle id="WE_128" type="typeStraight" route="WE" depart="238" />
    <vehicle id="EW_129" type="typeStraight" route="EW" depart="239" />
    <vehicle id="WE_130" type="typeStraight" route="WE" depart="240" />
    <vehicle id="WE_131" type="typeStraight" route="WE" depart="241" />
    <vehicle id="EW_132" type="typeStraight" route="EW" depart="241" />
    <vehicle id="SW_133" type="typeTurn" route="SW" depart="242" />
    <vehicle id="NE_134" type="typeTurn" route="NE" depart="245" />
    <vehicle id="SN_135" type="typeStraight" route="SN" depart="245" />
    <vehicle id="SN_136" type="typeStraight" route="SN" depart="247" />
    <vehicle id="WN_137" type="typeTurn" route="WN" depart="247" />
    <vehicle id="NS_138" type="typeStraight" route="NS" depart="248" />
    <vehicle id="EW_139" type="typeStraight" route="EW" depart="248" />
    <vehicle id="WE_140" type="typeStraight" route="WE" depart="250" />
    <vehicle id="SN_141" type="typeStraight" route="SN" depart="256" />
    <vehicle id="WE_142" type="typeStraight" route="WE" depart="258" />
    <vehicle id="EW_143" type="typeStraight" route="EW" depart="262" />
    <vehicle id="ES_144" type="typeTurn" route="ES" depart="262" />
    <vehicle id="NS_145" type="typeStraight" route="NS" depart="264" />
    <vehicle id="NS_146" type="typeStraight" route="NS" depart="265" />
    <vehicle id="SN_147" type="typeStraight" route="SN" depart="265" />
    <vehicle id="EW_148" type="typeStraight" route="EW" depart="265" />
    <vehicle id="WE_149" type="typeStraight" route="WE" depart="266" />
    <vehicle id="WN_150" type="typeTurn" route="WN" depart="268" />
    <vehicle id="NE_151" type="typeTurn" route="NE" depart="269" />
    <vehicle id="SN_152" type="typeStraight" route="SN" depart="270" />
    <vehicle id="ES_153" type="typeTurn" route="ES" depart="270" />
    <vehicle id="WE_154" type="typeStraight" route="WE" depart="271" />
    <vehicle id="WE_155" type="typeStraight" route="WE" depart="272" />
    <vehicle id="NE_156" type="typeTurn" route="NE" depart="275" />
    <vehicle id="EW_157" type="typeStraight" route="EW" depart="276" />
    <vehicle id="WN_158" type="typeTurn" route="WN" depart="277" />
    <vehicle id="EW_159" type="typeStraight" route="EW" depart="278" />
    <vehicle id="EW_160" type="typeStraight" route="EW" depart="279" />
    <vehicle id="WE_161" type="typeStraight" route="WE" depart="281" />
    <vehicle id="EW_162" type="typeStraight" route="EW" depart="289" />
    <vehicle id="SW_163" type="typeTurn" route="SW" depart="290" />
    <vehicle id="SN_164" type="typeStraight" route="SN" depart="291" />
    <vehicle id="EW_165" type="typeStraight" route="EW" depart="292" />
    <vehicle id="ES_166" type="typeTurn" route="ES" depart="296" />
    <vehicle id="WE_167" type="typeStraight" route="WE" depart="300" />
    <vehicle id="SN_168" type="typeStraight" route="SN" depart="303" />
    <vehicle id="WE_169" type="typeStraight" route="WE" depart="304" />
    <vehicle id="WN_170" type="typeTurn" route="WN" depart="304" />
    <vehicle id="WN_171" type="typeTurn" route="WN" depart="306" />
    <vehicle id="EW_172" type="typeStraight" route="EW" depart="309" />
    <vehicle id="WN_173" type="typeTurn" route="WN" depart="313" />
    <vehicle id="WE_174" type="typeStraight" route="WE" depart="314" />
    <vehicle id="NS_175" type="typeStraight" route="NS" depart="317" />
    <vehicle id="ES_176" type="typeTurn" route="ES" depart="317" />
    <vehicle id="SW_177" type="typeTurn" route="SW" depart="320" />
    <vehicle id="NS_178" type="typeStraight" route="NS" depart="321" />
    <vehicle id="EW_179" type="typeStraight" route="EW" depart="321" />
    <vehicle id="SW_180" type="typeTurn" route="SW" depart="323" />
    <vehicle id="WE_181" type="typeStraight" route="WE" depart="324" />
    <vehicle id="WN_182" type="typeTurn" route="WN" depart="325" />
    <vehicle id="WN_183" type="typeTurn" route="WN" depart="329" />
    <vehicle id="EW_184" type="typeStraight" route="EW" depart="329" />
    <vehicle id="NS_185" type="typeStraight" route="NS" depart="330" />
    <vehicle id="WN_186" type="typeTurn" route="WN" depart="332" />
    <vehicle id="ES_187" type="typeTurn" route="ES" depart="335" />
    <vehicle id="WN_188" type="typeTurn" route="WN" depart="336" />
    <vehicle id="NE_189" type="typeTurn" route="NE" depart="338" />
    <vehicle id="ES_190" type="typeTurn" route="ES" depart="341" />
    <vehicle id="WE_191" type="typeStraight" route="WE" depart="343" />
    <vehicle id="SW_192" type="typeTurn" route="SW" depart="344" />
    <vehicle id="EW_193" type="typeStraight" route="EW" depart="345" />
    <vehicle id="WN_194" type="typeTurn" route="WN" depart="346" />
    <vehicle id="EW_195" type="typeStraight" route="EW" depart="346" />
    <vehicle id="WN_196" type="typeTurn" route="WN" depart="348" />
    <vehicle id="ES_197" type="typeTurn" route="ES" depart="350" />
    <vehicle id="NE_198" type="typeTurn" route="NE" depart="352" />
    <vehicle id="NE_199" type="typeTurn" route="NE" depart="353" />
    <vehicle id="WE_200" type="typeStraight" route="WE" depart="354" />
    <vehicle id="WN_201" type="typeTurn" route="WN" depart="354" />
    <vehicle id="WE_202" type="typeStraight" route="WE" depart="355" />
    <vehicle id="SN_203" type="typeStraight" route="SN" depart="356" />
    <vehicle id="NE_204" type="typeTurn" route="NE" depart="357" />
    <vehicle id="ES_205" type="typeTurn" route="ES" depart="357" />
    <vehicle id="WN_206" type="typeTurn" route="WN" depart="360" />
    <vehicle id="WN_207" type="typeTurn" route="WN" depart="363" />
    <vehicle id="WE_208" type="typeStraight" route="WE" depart="365" />
    <vehicle id="WE_209" type="typeStraight" route="WE" depart="366" />
    <vehicle id="ES_210" type="typeTurn" route="ES" depart="370" />
    <vehicle id="WE_211" type="typeStraight" route="WE" depart="372" />
    <vehicle id="EW_212" type="typeStraight" route="EW" depart="373" />
    <vehicle id="WE_213" type="typeStraight" route="WE" depart="375" />
    <vehicle id="ES_214" type="typeTurn" route="ES" depart="376" />
    <vehicle id="SW_215" type="typeTurn" route="SW" depart="377" />
    <vehicle id="NE_216" type="typeTurn" route="NE" depart="379" />
    <vehicle id="SW_217" type="typeTurn" route="SW" depart="380" />
    <vehicle id="EW_218" type="typeStraight" route="EW" depart="380" />
    <vehicle id="WE_219" type="typeStraight" route="WE" depart="381" />
    <vehicle id="EW_220" type="typeStraight" route="EW" depart="382" />
    <vehicle id="ES_221" type="typeTurn" route="ES" depart="384" />
    <vehicle id="ES_222" type="typeTurn" route="ES" depart="387" />
    <vehicle id="NE_223" type="typeTurn" route="NE" depart="391" />
    <vehicle id="EW_224" type="typeStraight" route="EW" depart="391" />
    <vehicle id="WN_225" type="typeTurn" route="WN" depart="392" />
    <vehicle id="SN_226" type="typeStraight" route="SN" depart="396" />
    <vehicle id="ES_227" type="typeTurn" route="ES" depart="397" />
    <vehicle id="WE_228" type="typeStraight" route="WE" depart="400" />
    <vehicle id="ES_229" type="typeTurn" route="ES" depart="400" />
    <vehicle id="SW_230" type="typeTurn" route="SW" depart="401" />
    <vehicle id="NS_231" type="typeStraight" route="NS" depart="407" />
    <vehicle id="ES_232" type="typeTurn" route="ES" depart="408" />
    <vehicle id="ES_233" type="typeTurn" route="ES" depart="409" />
    <vehicle id="WE_234" type="typeStraight" route="WE" depart="411" />
    <vehicle id="NE_235" type="typeTurn" route="NE" depart="414" />
    <vehicle id="EW_236" type="typeStraight" route="EW" depart="415" />
    <vehicle id="NE_237" type="typeTurn" route="NE" depart="416" />
    <vehicle id="WN_238" type="typeTurn" route="WN" depart="420" />
    <vehicle id="NE_239" type="typeTurn" route="NE" depart="421" />
    <vehicle id="WN_240" type="typeTurn" route="WN" depart="421" />
    <vehicle id="NE_241" type="typeTurn" route="NE" depart="425" />
    <vehicle id="EW_242" type="typeStraight" route="EW" depart="425" />
    <vehicle id="WE_243" type="typeStraight" route="WE" depart="426" />
    <vehicle id="WN_244" type="typeTurn" route="WN" depart="427" />
    <vehicle id="ES_245" type="typeTurn" route="ES" depart="427" />
    <vehicle id="WE_246" type="typeStraight" route="WE" depart="428" />
    <vehicle id="EW_247" type="typeStraight" route="EW" depart="428" />
    <vehicle id="EW_248" type="typeStraight" route="EW" depart="429" />
    <vehicle id="WN_249" type="typeTurn" route="WN" depart="432" />
    <vehicle id="WN_250" type="typeTurn" route="WN" depart="433" />
    <vehicle id="WN_251" type="typeTurn" route="WN" depart="437" />
    <vehicle id="WN_252" type="typeTurn" route="WN" depart="439" />
    <vehicle id="EW_253" type="typeStraight" route="EW" depart="439" />
    <vehicle id="ES_254" type="typeTurn" route="ES" depart="440" />
    <vehicle id="NS_255" type="typeStraight" route="NS" depart="443" />
    <vehicle id="NE_256" type="typeTurn" route="NE" depart="446" />
    <vehicle id="NS_257" type="typeStraight" route="NS" depart="453" />
    <vehicle id="WE_258" type="typeStraight" route="WE" depart="454" />
    <vehicle id="ES_259" type="typeTurn" route="ES" depart="456" />
    <vehicle id="EW_260" type="typeStraight" route="EW" depart="460" />
    <vehicle id="WN_261" type="typeTurn" route="WN" depart="462" />
    <vehicle id="NS_262" type="typeStraight" route="NS" depart="464" />
    <vehicle id="SW_263" type="typeTurn" route="SW" depart="466" />
    <vehicle id="SW_264" type="typeTurn" route="SW" depart="467" />
    <vehicle id="WE_265" type="typeStraight" route="WE" depart="467" />
    <vehicle id="WE_266" type="typeStraight" route="WE" depart="469" />
    <vehicle id="WN_267" type="typeTurn" route="WN" depart="469" />
    <vehicle id="EW_268" type="typeStraight" route="EW" depart="470" />
    <vehicle id="EW_269" type="typeStraight" route="EW" depart="471" />
    <vehicle id="NE_270" type="typeTurn" route="NE" depart="475" />
    <vehicle id="WE_271" type="typeStraight" route="WE" depart="480" />
    <vehicle id="SW_272" type="typeTurn" route="SW" depart="483" />
    <vehicle id="WN_273" type="typeTurn" route="WN" depart="483" />
    <vehicle id="SN_274" type="typeStraight" route="SN" depart="488" />
    <vehicle id="NS_275" type="typeStraight" route="NS" depart="489" />
    <vehicle id="NE_276" type="typeTurn" route="NE" depart="494" />
    <vehicle id="SN_277" type="typeStraight" route="SN" depart="494" />
    <vehicle id="EW_278" type="typeStraight" route="EW" depart="494" />
    <vehicle id="EW_279" type="typeStraight" route="EW" depart="495" />
    <vehicle id="WN_280" type="typeTurn" route="WN" depart="499" />
    <vehicle id="SN_281" type="typeStraight" route="SN" depart="501" />
    <vehicle id="WE_282" type="typeStraight" route="WE" depart="502" />
    <vehicle id="NE_283" type="typeTurn" route="NE" depart="504" />
    <vehicle id="ES_284" type="typeTurn" route="ES" depart="508" />
    <vehicle id="WE_285" type="typeStraight" route="WE" depart="509" />
    <vehicle id="EW_286" type="typeStraight" route="EW" depart="509" />
    <vehicle id="ES_287" type="typeTurn" route="ES" depart="509" />
    <vehicle id="EW_288" type="typeStraight" route="EW" depart="511" />
    <vehicle id="SW_289" type="typeTurn" route="SW" depart="512" />
    <vehicle id="WN_290" type="typeTurn" route="WN" depart="512" />
    <vehicle id="EW_291" type="typeStraight" route="EW" depart="513" />
    <vehicle id="ES_292" type="typeTurn" route="ES" depart="513" />
    <vehicle id="WN_293" type="typeTurn" route="WN" depart="515" />
    <vehicle id="EW_294" type="typeStraight" route="EW" depart="517" />
    <vehicle id="NS_295" type="typeStraight" route="NS" depart="519" />
    <vehicle id="EW_296" type="typeStraight" route="EW" depart="519" />
    <vehicle id="ES_297" type="typeTurn" route="ES" depart="522" />
    <vehicle id="WE_298" type="typeStraight" route="WE" depart="524" />
    <vehicle id="NS_299" type="typeStraight" route="NS" depart="526" />
    <vehicle id="WN_300" type="typeTurn" route="WN" depart="528" />
    <vehicle id="WE_301" type="typeStraight" route="WE" depart="532" />
    <vehicle id="WE_302" type="typeStraight" route="WE" depart="535" />
    <vehicle id="SW_303" type="typeTurn" route="SW" depart="537" />
    <vehicle id="EW_304" type="typeStraight" route="EW" depart="538" />
    <vehicle id="WE_305" type="typeStraight" route="WE" depart="540" />
    <vehicle id="EW_306" type="typeStraight" route="EW" depart="543" />
    <vehicle id="SW_307" type="typeTurn" route="SW" depart="544" />
    <vehicle id="ES_308" type="typeTurn" route="ES" depart="544" />
    <vehicle id="SW_309" type="typeTurn" route="SW" depart="545" />
    <vehicle id="ES_310" type="typeTurn" route="ES" depart="548" />
    <vehicle id="NS_311" type="typeStraight" route="NS" depart="549" />
    <vehicle id="WN_312" type="typeTurn" route="WN" depart="551" />
    <vehicle id="NE_313" type="typeTurn" route="NE" depart="553" />
    <vehicle id="SW_314" type="typeTurn" route="SW" depart="554" />
    <vehicle id="SW_315" type="typeTurn" route="SW" depart="556" />
    <vehicle id="WE_316" type="typeStraight" route="WE" depart="556" />
    <vehicle id="WE_317" type="typeStraight" route="WE" depart="561" />
    <vehicle id="NE_318" type="typeTurn" route="NE" depart="562" />
    <vehicle id="WN_319" type="typeTurn" route="WN" depart="562" />
    <vehicle id="WN_320" type="typeTurn" route="WN" depart="564" />
    <vehicle id="WE_321" type="typeStraight" route="WE" depart="566" />
    <vehicle id="SW_322" type="typeTurn" route="SW" depart="568" />
    <vehicle id="WE_323" type="typeStraight" route="WE" depart="568" />
    <vehicle id="NE_324" type="typeTurn" route="NE" depart="575" />
    <vehicle id="NE_325" type="typeTurn" route="NE" depart="576" />
    <vehicle id="ES_326" type="typeTurn" route="ES" depart="578" />
    <vehicle id="SN_327" type="typeStraight" route="SN" depart="580" />
    <vehicle id="EW_328" type="typeStraight" route="EW" depart="580" />
    <vehicle id="WN_329" type="typeTurn" route="WN" depart="582" />
    <vehicle id="ES_330" type="typeTurn" route="ES" depart="582" />
    <vehicle id="WN_331" type="typeTurn" route="WN" depart="584" />
    <vehicle id="ES_332" type="typeTurn" route="ES" depart="585" />
    <vehicle id="EW_333" type="typeStraight" route="EW" depart="586" />
    <vehicle id="WN_334" type="typeTurn" route="WN" depart="587" />
    <vehicle id="SN_335" type="typeStraight" route="SN" depart="588" />
    <vehicle id="EW_336" type="typeStraight" route="EW" depart="588" />
    <vehicle id="NS_337" type="typeStraight" route="NS" depart="590" />
    <vehicle id="SW_338" type="typeTurn" route="SW" depart="590" />
    <vehicle id="SN_339" type="typeStraight" route="SN" depart="591" />
    <vehicle id="NS_340" type="typeStraight" route="NS" depart="592" />
    <vehicle id="EW_341" type="typeStraight" route="EW" depart="592" />
    <vehicle id="EW_342" type="typeStraight" route="EW" depart="593" />
    <vehicle id="ES_343" type="typeTurn" route="ES" depart="595" />
    <vehicle id="WN_344" type="typeTurn" route="WN" depart="596" />
    <vehicle id="WE_345" type="typeStraight" route="WE" depart="604" />
    <vehicle id="EW_346" type="typeStraight" route="EW" depart="604" />
    <vehicle id="WE_347" type="typeStraight" route="WE" depart="605" />
    <vehicle id="WN_348" type="typeTurn" route="WN" depart="606" />
    <vehicle id="SN_349" type="typeStraight" route="SN" depart="608" />
    <vehicle id="SN_350" type="typeStraight" route="SN" depart="609" />
    <vehicle id="NE_351" type="typeTurn" route="NE" depart="617" />
    <vehicle id="ES_352" type="typeTurn" route="ES" depart="617" />
    <vehicle id="EW_353" type="typeStraight" route="EW" depart="618" />
    <vehicle id="NE_354" type="typeTurn" route="NE" depart="619" />
    <vehicle id="ES_355" type="typeTurn" route="ES" depart="619" />
    <vehicle id="ES_356" type="typeTurn" route="ES" depart="621" />
    <vehicle id="NE_357" type="typeTurn" route="NE" depart="626" />
    <vehicle id="SN_358" type="typeStraight" route="SN" depart="626" />
    <vehicle id="WE_359" type="typeStraight" route="WE" depart="627" />
    <vehicle id="SW_360" type="typeTurn" route="SW" depart="628" />
    <vehicle id="NS_361" type="typeStraight" route="NS" depart="629" />
    <vehicle id="WE_362" type="typeStraight" route="WE" depart="632" />
    <vehicle id="ES_363" type="typeTurn" route="ES" depart="633" />
    <vehicle id="WE_364" type="typeStraight" route="WE" depart="635" />
    <vehicle id="EW_365" type="typeStraight" route="EW" depart="637" />
    <vehicle id="WE_366" type="typeStraight" route="WE" depart="638" />
    <vehicle id="SW_367" type="typeTurn" route="SW" depart="640" />
    <vehicle id="WN_368" type="typeTurn" route="WN" depart="641" />
    <vehicle id="WN_369" type="typeTurn" route="WN" depart="642" />
    <vehicle id="NS_370" type="typeStraight" route="NS" depart="647" />
    <vehicle id="EW_371" type="typeStraight" route="EW" depart="650" />
    <vehicle id="ES_372" type="typeTurn" route="ES" depart="652" />
    <vehicle id="WE_373" type="typeStraight" route="WE" depart="653" />
    <vehicle id="WE_374" type="typeStraight" route="WE" depart="655" />
    <vehicle id="WN_375" type="typeTurn" route="WN" depart="655" />
    <vehicle id="WE_376" type="typeStraight" route="WE" depart="656" />
    <vehicle id="WE_377" type="typeStraight" route="WE" depart="659" />
    <vehicle id="WE_378" type="typeStraight" route="WE" depart="664" />
    <vehicle id="WE_379" type="typeStraight" route="WE" depart="665" />
    <vehicle id="ES_380" type="typeTurn" route="ES" depart="666" />
    <vehicle id="WE_381" type="typeStraight" route="WE" depart="667" />
    <vehicle id="ES_382" type="typeTurn" route="ES" depart="667" />
    <vehicle id="WE_383" type="typeStraight" route="WE" depart="668" />
    <vehicle id="SW_384" type="typeTurn" route="SW" depart="669" />
    <vehicle id="SW_385" type="typeTurn" route="SW" depart="674" />
    <vehicle id="NE_386" type="typeTurn" route="NE" depart="675" />
    <vehicle id="NS_387" type="typeStraight" route="NS" depart="678" />
    <vehicle id="ES_388" type="typeTurn" route="ES" depart="678" />
    <vehicle id="ES_389" type="typeTurn" route="ES" depart="682" />
    <vehicle id="ES_390" type="typeTurn" route="ES" depart="684" />
    <vehicle id="WE_391" type="typeStraight" route="WE" depart="687" />
    <vehicle id="ES_392" type="typeTurn" route="ES" depart="688" />
    <vehicle id="ES_393" type="typeTurn" route="ES" depart="689" />
    <vehicle id="EW_394" type="typeStraight" route="EW" depart="690" />
    <vehicle id="EW_395" type="typeStraight" route="EW" depart="691" />
    <vehicle id="WN_396" type="typeTurn" route="WN" depart="692" />
    <vehicle id="EW_397" type="typeStraight" route="EW" depart="692" />
    <vehicle id="NS_398" type="typeStraight" route="NS" depart="693" />
    <vehicle id="SN_399" type="typeStraight" route="SN" depart="694" />
    <vehicle id="ES_400" type="typeTurn" route="ES" depart="694" />
    <vehicle id="SW_401" type="typeTurn" route="SW" depart="695" />
    <vehicle id="SW_402" type="typeTurn" route="SW" depart="699" />
    <vehicle id="WE_403" type="typeStraight" route="WE" depart="699" />
    <vehicle id="NS_404" type="typeStraight" route="NS" depart="700" />
    <vehicle id="SN_405" type="typeStraight" route="SN" depart="700" />
    <vehicle id="WE_406" type="typeStraight" route="WE" depart="700" />
    <vehicle id="NE_407" type="typeTurn" route="NE" depart="702" />
    <vehicle id="NS_408" type="typeStraight" route="NS" depart="703" />
    <vehicle id="WE_409" type="typeStraight" route="WE" depart="703" />
    <vehicle id="SW_410" type="typeTurn" route="SW" depart="705" />
    <vehicle id="SN_411" type="typeStraight" route="SN" depart="706" />
    <vehicle id="WN_412" type="typeTurn" route="WN" depart="710" />
    <vehicle id="SW_413" type="typeTurn" route="SW" depart="714" />
    <vehicle id="WN_414" type="typeTurn" route="WN" depart="714" />
    <vehicle id="NS_415" type="typeStraight" route="NS" depart="715" />
    <vehicle id="NS_416" type="typeStraight" route="NS" depart="716" />
    <vehicle id="EW_417" type="typeStraight" route="EW" depart="716" />
    <vehicle id="WE_418" type="typeStraight" route="WE" depart="717" />
    <vehicle id="EW_419" type="typeStraight" route="EW" depart="718" />
    <vehicle id="NE_420" type="typeTurn" route="NE" depart="719" />
    <vehicle id="WN_421" type="typeTurn" route="WN" depart="721" />