<routes>
        <vType id="typeStraight" accel="1" decel="4.5" sigma="0.5" length="5" minGap="2.5" maxSpeed="13.9" guiShape="passenger"/>
        <vType id="typeTurn" accel="1" decel="4.5" sigma="0.5" length="5" minGap="2.5" maxSpeed="13.9" guiShape="passenger"/>

        <route id="WE" edges="1i 2o" />
        <route id="EW" edges="2i 1o " />
        <route id="NS" edges="4i 3o " />
        <route id="SN" edges="3i 4o " />
        <route id="NE" edges="4i 2o" />
        <route id="ES" edges="2i 3o " />
        <route id="SW" edges="3i 1o " />
        <route id="WN" edges="1i 4o " />
    <vehicle id="NE_0" type="typeTurn" route="NE" depart="0" />
    <vehicle id="ES_1" type="typeTurn" route="ES" depart="0" />
    <vehicle id="NE_2" type="typeTurn" route="NE" depart="1" />
    <vehicle id="WE_3" type="typeStraight" route="WE" depart="1" />
    <vehicle id="WN_4" type="typeTurn" route="WN" depart="1" />
    <vehicle id="SW_5" type="typeTurn" route="SW" depart="2" />
    <vehicle id="ES_6" type="typeTurn" route="ES" depart="2" />
    <vehicle id="SN_7" type="typeStraight" route="SN" depart="3" />
    <vehicle id="SW_8" type="typeTurn" route="SW" depart="3" />
    <vehicle id="NE_9" type="typeTurn" route="NE" depart="5" />
    <vehicle id="WE_10" type="typeStraight" route="WE" depart="5" />
    <vehicle id="EW_11" type="typeStraight" route="EW" depart="5" />
    <vehicle id="NS_12" type="typeStraight" route="NS" depart="7" />
    <vehicle id="SN_13" type="typeStraight" route="SN" depart="7" />
    <vehicle id="SW_14" type="typeTurn" route="SW" depart="8" />
    <vehicle id="NS_15" type="typeStraight" route="NS" depart="11" />
    <vehicle id="NE_16" type="typeTurn" route="NE" depart="11" />
    <vehicle id="SN_17" type="typeStraight" route="SN" depart="11" />
    <vehicle id="EW_18" type="typeStraight" route="EW" depart="11" />
    <vehicle id="WE_19" type="typeStraight" route="WE" depart="12" />
    <vehicle id="SN_20" type="typeStraight" route="SN" depart="13" />
    <vehicle id="NE_21" type="typeTurn" route="NE" depart="14" />
    <vehicle id="ES_22" type="typeTurn" route="ES" depart="14" />
    <vehicle id="WE_23" type="typeStraight" route="WE" depart="15" />
    <vehicle id="EW_24" type="typeStraight" route="EW" depart="15" />
    <vehicle id="SW_25" type="typeTurn" route="SW" depart="16" />
    <vehicle id="EW_26" type="typeStraight" route="EW" depart="16" />
    <vehicle id="NS_27" type="typeStraight" route="NS" depart="17" />
    <vehicle id="SW_28" type="typeTurn" route="SW" depart="17" />
    <vehicle id="SN_29" type="typeStraight" route="SN" depart="19" />
    <vehicle id="NS_30" type="typeStraight" route="NS" depart="20" />
    <vehicle id="WN_31" type="typeTurn" route="WN" depart="20" />
    <vehicle id="NE_32" type="typeTurn" route="NE" depart="21" />
    <vehicle id="ES_33" type="typeTurn" route="ES" depart="21" />
    <vehicle id="NS_34" type="typeStraight" route="NS" depart="22" />
    <vehicle id="ES_35" type="typeTurn" route="ES" depart="22" />
    <vehicle id="WE_36" type="typeStraight" route="WE" depart="23" />
    <vehicle id="WN_37" type="typeTurn" route="WN" depart="24" />
    <vehicle id="SW_38" type="typeTurn" route="SW" depart="25" />
    <vehicle id="ES_39" type="typeTurn" route="ES" depart="25" />
    <vehicle id="SN_40" type="typeStraight" route="SN" depart="27" />
    <vehicle id="NS_41" type="typeStraight" route="NS" depart="28" />
    <vehicle id="WE_42" type="typeStraight" route="WE" depart="28" />
    <vehicle id="EW_43" type="typeStraight" route="EW" depart="28" />
    <vehicle id="ES_44" type="typeTurn" route="ES" depart="28" />
    <vehicle id="SW_45" type="typeTurn" route="SW" depart="29" />
    <vehicle id="WE_46" type="typeStraight" route="WE" depart="31" />
    <vehicle id="NS_47" type="typeStraight" route="NS" depart="32" />
    <vehicle id="ES_48" type="typeTurn" route="ES" depart="32" />
    <vehicle id="WN_49" type="typeTurn" route="WN" depart="33" />
    <vehicle id="SN_50" type="typeStraight" route="SN" depart="34" />
    <vehicle id="SW_51" type="typeTurn" route="SW" depart="34" />
    <vehicle id="WE_52" type="typeStraight" route="WE" depart="34" />
    <vehicle id="ES_53" type="typeTurn" route="ES" depart="35" />
    <vehicle id="SN_54" type="typeStraight" route="SN" depart="36" />
    <vehicle id="NE_55" type="typeTurn" route="NE" depart="37" />
    <vehicle id="SN_56" type="typeStraight" route="SN" depart="37" />
    <vehicle id="NS_57" type="typeStraight" route="NS" depart="38" />
    <vehicle id="NE_58" type="typeTurn" route="NE" depart="38" />
    <vehicle id="NE_59" type="typeTurn" route="NE" depart="39" />
    <vehicle id="EW_60" type="typeStraight" route="EW" depart="39" />
    <vehicle id="WE_61" type="typeStraight" route="WE" depart="40" />
    <vehicle id="WN_62" type="typeTurn" route="WN" depart="41" />
    <vehicle id="EW_63" type="typeStraight" route="EW" depart="42" />
    <vehicle id="ES_64" type="typeTurn" route="ES" depart="42" />
    <vehicle id="NE_65" type="typeTurn" route="NE" depart="44" />
    <vehicle id="SW_66" type="typeTurn" route="SW" depart="44" />
    <vehicle id="EW_67" type="typeStraight" route="EW" depart="44" />
    <vehicle id="NS_68" type="typeStraight" route="NS" depart="46" />
    <vehicle id="ES_69" type="typeTurn" route="ES" depart="46" />
    <vehicle id="SN_70" type="typeStraight" route="SN" depart="48" />
    <vehicle id="SN_71" type="typeStraight" route="SN" depart="49" />
    <vehicle id="WN_72" type="typeTurn" route="WN" depart="50" />
    <vehicle id="EW_73" type="typeStraight" route="EW" depart="50" />
    <vehicle id="EW_74" type="typeStraight" route="EW" depart="51" />
    <vehicle id="ES_75" type="typeTurn" route="ES" depart="51" />
    <vehicle id="SW_76" type="typeTurn" route="SW" depart="52" />
    <vehicle id="EW_77" type="typeStraight" route="EW" depart="52" />
    <vehicle id="SW_78" type="typeTurn" route="SW" depart="53" />
    <vehicle id="EW_79" type="typeStraight" route="EW" depart="53" />
    <vehicle id="NS_80" type="typeStraight" route="NS" depart="54" />
    <vehicle id="SW_81" type="typeTurn" route="SW" depart="54" />
    <vehicle id="WE_82" type="typeStraight" route="WE" depart="57" />
    <vehicle id="NE_83" type="typeTurn" route="NE" depart="58" />
    <vehicle id="WN_84" type="typeTurn" route="WN" depart="58" />
    <vehicle id="NE_85" type="typeTurn" route="NE" depart="60" />
    <vehicle id="WN_86" type="typeTurn" route="WN" depart="61" />
    <vehicle id="NE_87" type="typeTurn" route="NE" depart="62" />
    <vehicle id="SW_88" type="typeTurn" route="SW" depart="62" />
    <vehicle id="WN_89" type="typeTurn" route="WN" depart="62" />
    <vehicle id="NS_90" type="typeStraight" route="NS" depart="63" />
    <vehicle id="SN_91" type="typeStraight" route="SN" depart="63" />
    <vehicle id="WE_92" type="typeStraight" route="WE" depart="63" />
    <vehicle id="WN_93" type="typeTurn" route="WN" depart="64" />
    <vehicle id="EW_94" type="typeStraight" route="EW" depart="64" />
    <vehicle id="ES_95" type="typeTurn" route="ES" depart="65" />
    <vehicle id="NS_96" type="typeStraight" route="NS" depart="66" />
    <vehicle id="NE_97" type="typeTurn" route="NE" depart="66" />
    <vehicle id="SN_98" type="typeStraight" route="SN" depart="66" />
    <vehicle id="NS_99" type="typeStraight" route="NS" depart="67" />
    <vehicle id="SW_100" type="typeTurn" route="SW" depart="67" />
    <vehicle id="EW_101" type="typeStraight" route="EW" depart="67" />
    <vehicle id="ES_102" type="typeTurn" route="ES" depart="67" />
    <vehicle id="WN_103" type="typeTurn" route="WN" depart="68" />
    <vehicle id="NS_104" type="typeStraight" route="NS" depart="69" />
    <vehicle id="WE_105" type="typeStraight" route="WE" depart="69" />
    <vehicle id="EW_106" type="typeStraight" route="EW" depart="70" />
    <vehicle id="ES_107" type="typeTurn" route="ES" depart="72" />
    <vehicle id="WN_108" type="typeTurn" route="WN" depart="73" />
    <vehicle id="ES_109" type="typeTurn" route="ES" depart="73" />
    <vehicle id="EW_110" type="typeStraight" route="EW" depart="74" />
    <vehicle id="NS_111" type="typeStraight" route="NS" depart="75" />
    <vehicle id="NS_112" type="typeStraight" route="NS" depart="76" />
    <vehicle id="WN_113" type="typeTurn" route="WN" depart="77" />
    <vehicle id="EW_114" type="typeStraight" route="EW" depart="77" />
    <vehicle id="ES_115" type="typeTurn" route="ES" depart="77" />
    <vehicle id="SN_116" type="typeStraight" route="SN" depart="78" />
    <vehicle id="NE_117" type="typeTurn" route="NE" depart="79" />
    <vehicle id="SN_118" type="typeStraight" route="SN" depart="79" />
    <vehicle id="WE_119" type="typeStraight" route="WE" depart="79" />
    <vehicle id="WN_120" type="typeTurn" route="WN" depart="79" />
    <vehicle id="SW_121" type="typeTurn" route="SW" depart="80" />
    <vehicle id="SN_122" type="typeStraight" route="SN" depart="81" />
    <vehicle id="SW_123" type="typeTurn" route="SW" depart="81" />
    <vehicle id="NS_124" type="typeStraight" route="NS" depart="82" />
    <vehicle id="SN_125" type="typeStraight" route="SN" depart="82" />
    <vehicle id="SW_126" type="typeTurn" route="SW" depart="82" />
    <vehicle id="ES_127" type="typeTurn" route="ES" depart="82" />
    <vehicle id="NE_128" type="typeTurn" route="NE" depart="85" />
    <vehicle id="SN_129" type="typeStraight" route="SN" depart="85" />
    <vehicle id="SW_130" type="typeTurn" route="SW" depart="85" />
    <vehicle id="WE_131" type="typeStraight" route="WE" depart="85" />
    <vehicle id="ES_132" type="typeTurn" route="ES" depart="87" />
    <vehicle id="NS_133" type="typeStraight" route="NS" depart="88" />
    <vehicle id="WN_134" type="typeTurn" route="WN" depart="88" />
    <vehicle id="SW_135" type="typeTurn" route="SW" depart="89" />
    <vehicle id="WE_136" type="typeStraight" route="WE" depart="89" />
    <vehicle id="NS_137" type="typeStraight" route="NS" depart="90" />
    <vehicle id="NS_138" type="typeStraight" route="NS" depart="91" />
    <vehicle id="WN_139" type="typeTurn" route="WN" depart="91" />
    <vehicle id="NE_140" type="typeTurn" route="NE" depart="92" />
    <vehicle id="EW_141" type="typeStraight" route="EW" depart="94" />
    <vehicle id="NS_142" type="typeStraight" route="NS" depart="96" />
    <vehicle id="WE_143" type="typeStraight" route="WE" depart="96" />
    <vehicle id="ES_144" type="typeTurn" route="ES" depart="96" />
    <vehicle id="SW_145" type="typeTurn" route="SW" depart="97" />
    <vehicle id="WN_146" type="typeTurn" route="WN" depart="100" />
    <vehicle id="WE_147" type="typeStraight" route="WE" depart="101" />
    <vehicle id="NE_148" type="typeTurn" route="NE" depart="102" />
    <vehicle id="SN_149" type="typeStraight" route="SN" depart="103" />
    <vehicle id="WN_150" type="typeTurn" route="WN" depart="104" />
    <vehicle id="SW_151" type="typeTurn" route="SW" depart="106" />
    <vehicle id="WE_152" type="typeStraight" route="WE" depart="106" />
    <vehicle id="SN_153" type="typeStraight" route="SN" depart="107" />
    <vehicle id="NS_154" type="typeStraight" route="NS" depart="108" />
    <vehicle id="WE_155" type="typeStraight" route="WE" depart="108" />
    <vehicle id="NS_156" type="typeStraight" route="NS" depart="109" />
    <vehicle id="NE_157" type="typeTurn" route="NE" depart="109" />
    <vehicle id="EW_158" type="typeStraight" route="EW" depart="109" />
    <vehicle id="SN_159" type="typeStraight" route="SN" depart="110" />
    <vehicle id="EW_160" type="typeStraight" route="EW" depart="110" />
    <vehicle id="EW_161" type="typeStraight" route="EW" depart="111" />
    <vehicle id="WE_162" type="typeStraight" route="WE" depart="113" />
    <vehicle id="NE_163" type="typeTurn" route="NE" depart="116" />
    <vehicle id="WE_164" type="typeStraight" route="WE" depart="116" />
    <vehicle id="WN_165" type="typeTurn" route="WN" depart="116" />
    <vehicle id="NE_166" type="typeTurn" route="NE" depart="118" />
    <vehicle id="SW_167" type="typeTurn" route="SW" depart="118" />
    <vehicle id="WE_168" type="typeStraight" route="WE" depart="119" />
    <vehicle id="WE_169" type="typeStraight" route="WE" depart="120" />
    <vehicle id="EW_170" type="typeStraight" route="EW" depart="120" />
    <vehicle id="SW_171" type="typeTurn" route="SW" depart="121" />
    <vehicle id="NS_172" type="typeStraight" route="NS" depart="122" />
    <vehicle id="WE_173" type="typeStraight" route="WE" depart="122" />
    <vehicle id="EW_174" type="typeStraight" route="EW" depart="122" />
    <vehicle id="WN_175" type="typeTurn" route="WN" depart="123" />
    <vehicle id="ES_176" type="typeTurn" route="ES" depart="123" />
    <vehicle id="SW_177" type="typeTurn" route="SW" depart="124" />
    <vehicle id="NS_178" type="typeStraight" route="NS" depart="125" />
    <vehicle id="EW_179" type="typeStraight" route="EW" depart="125" />
    <vehicle id="ES_180" type="typeTurn" route="ES" depart="125" />
    <vehicle id="WN_181" type="typeTurn" route="WN" depart="126" />
    <vehicle id="NS_182" type="typeStraight" route="NS" depart="127" />
    <vehicle id="SN_183" type="typeStraight" route="SN" depart="127" />
    <vehicle id="NS_184" type="typeStraight" route="NS" depart="128" />
    <vehicle id="SN_185" type="typeStraight" route="SN" depart="128" />
    <vehicle id="WE_186" type="typeStraight" route="WE" depart="128" />
    <vehicle id="WN_187" type="typeTurn" route="WN" depart="128" />
    <vehicle id="ES_188" type="typeTurn" route="ES" depart="128" />
    <vehicle id="NE_189" type="typeTurn" route="NE" depart="129" />
    <vehicle id="SN_190" type="typeStraight" route="SN" depart="129" />
    <vehicle id="EW_191" type="typeStraight" route="EW" depart="129" />
    <vehicle id="ES_192" type="typeTurn" route="ES" depart="129" />
    <vehicle id="EW_193" type="typeStraight" route="EW" depart="130" />
    <vehicle id="NE_194" type="typeTurn" route="NE" depart="131" />
    <vehicle id="ES_195" type="typeTurn" route="ES" depart="131" />
    <vehicle id="WN_196" type="typeTurn" route="WN" depart="132" />
    <vehicle id="EW_197" type="typeStraight" route="EW" depart="132" />
    <vehicle id="NS_198" type="typeStraight" route="NS" depart="133" />
    <vehicle id="NE_199" type="typeTurn" route="NE" depart="134" />
    <vehicle id="WN_200" type="typeTurn" route="WN" depart="135" />
    <vehicle id="NE_201" type="typeTurn" route="NE" depart="136" />
    <vehicle id="SW_202" type="typeTurn" route="SW" depart="136" />
    <vehicle id="WN_203" type="typeTurn" route="WN" depart="136" />
    <vehicle id="EW_204" type="typeStraight" route="EW" depart="136" />
    <vehicle id="WN_205" type="typeTurn" route="WN" depart="137" />
    <vehicle id="SN_206" type="typeStraight" route="SN" depart="139" />
    <vehicle id="WN_207" type="typeTurn" route="WN" depart="140" />
    <vehicle id="NE_208" type="typeTurn" route="NE" depart="141" />
    <vehicle id="WN_209" type="typeTurn" route="WN" depart="141" />
    <vehicle id="NE_210" type="typeTurn" route="NE" depart="142" />
    <vehicle id="SW_211" type="typeTurn" route="SW" depart="142" />
    <vehicle id="WE_212" type="typeStraight" route="WE" depart="143" />
    <vehicle id="WN_213" type="typeTurn" route="WN" depart="143" />
    <vehicle id="EW_214" type="typeStraight" route="EW" depart="143" />
    <vehicle id="ES_215" type="typeTurn" route="ES" depart="144" />
    <vehicle id="WN_216" type="typeTurn" route="WN" depart="145" />
    <vehicle id="NS_217" type="typeStraight" route="NS" depart="146" />
    <vehicle id="SW_218" type="typeTurn" route="SW" depart="146" />
    <vehicle id="EW_219" type="typeStraight" route="EW" depart="146" />
    <vehicle id="NS_220" type="typeStraight" route="NS" depart="147" />
    <vehicle id="EW_221" type="typeStraight" route="EW" depart="147" />
    <vehicle id="NS_222" type="typeStraight" route="NS" depart="148" />
    <vehicle id="NE_223" type="typeTurn" route="NE" depart="148" />
    <vehicle id="NS_224" type="typeStraight" route="NS" depart="149" />
    <vehicle id="NE_225" type="typeTurn" route="NE" depart="149" />
    <vehicle id="ES_226" type="typeTurn" route="ES" depart="149" />
    <vehicle id="NS_227" type="typeStraight" route="NS" depart="151" />
    <vehicle id="SN_228" type="typeStraight" route="SN" depart="151" />
    <vehicle id="SN_229" type="typeStraight" route="SN" depart="152" />
    <vehicle id="SW_230" type="typeTurn" route="SW" depart="152" />
    <vehicle id="ES_231" type="typeTurn" route="ES" depart="152" />
    <vehicle id="SW_232" type="typeTurn" route="SW" depart="154" />
    <vehicle id="WE_233" type="typeStraight" route="WE" depart="154" />
    <vehicle id="NS_234" type="typeStraight" route="NS" depart="155" />
    <vehicle id="WE_235" type="typeStraight" route="WE" depart="155" />
    <vehicle id="EW_236" type="typeStraight" route="EW" depart="155" />
    <vehicle id="WE_237" type="typeStraight" route="WE" depart="157" />
    <vehicle id="WN_238" type="typeTurn" route="WN" depart="157" />
    <vehicle id="EW_239" type="typeStraight" route="EW" depart="157" />
    <vehicle id="SW_240" type="typeTurn" route="SW" depart="158" />
    <vehicle id="NS_241" type="typeStraight" route="NS" depart="159" />
    <vehicle id="NS_242" type="typeStraight" route="NS" depart="160" />
    <vehicle id="NE_243" type="typeTurn" route="NE" depart="160" />
    <vehicle id="SN_244" type="typeStraight" route="SN" depart="161" />
    <vehicle id="EW_245" type="typeStraight" route="EW" depart="163" />
    <vehicle id="SW_246" type="typeTurn" route="SW" depart="164" />
    <vehicle id="WE_247" type="typeStraight" route="WE" depart="164" />
    <vehicle id="EW_248" type="typeStraight" route="EW" depart="164" />
    <vehicle id="SN_249" type="typeStraight" route="SN" depart="165" />
    <vehicle id="WN_250" type="typeTurn" route="WN" depart="165" />
    <vehicle id="ES_251" type="typeTurn" route="ES" depart="165" />
    <vehicle id="SW_252" type="typeTurn" route="SW" depart="166" />
    <vehicle id="SW_253" type="typeTurn" route="SW" depart="169" />
    <vehicle id="NS_254" type="typeStraight" route="NS" depart="170" />
    <vehicle id="ES_255" type="typeTurn" route="ES" depart="170" />
    <vehicle id="WN_256" type="typeTurn" route="WN" depart="171" />
    <vehicle id="EW_257" type="typeStraight" route="EW" depart="171" />
    <vehicle id="SW_258" type="typeTurn" route="SW" depart="172" />
    <vehicle id="NS_259" type="typeStraight" route="NS" depart="173" />
    <vehicle id="WE_260" type="typeStraight" route="WE" depart="173" />
    <vehicle id="ES_261" type="typeTurn" route="ES" depart="173" />
    <vehicle id="NS_262" type="typeStraight" route="NS" depart="174" />
    <vehicle id="EW_263" type="typeStraight" route="EW" depart="174" />
    <vehicle id="NE_264" type="typeTurn" route="NE" depart="175" />
    <vehicle id="WN_265" type="typeTurn" route="WN" depart="175" />
    <vehicle id="NS_266" type="typeStraight" route="NS" depart="176" />
    <vehicle id="SW_267" type="typeTurn" route="SW" depart="176" />
    <vehicle id="NE_268" type="typeTurn" route="NE" depart="177" />
    <vehicle id="SW_269" type="typeTurn" route="SW" depart="177" />
    <vehicle id="WN_270" type="typeTurn" route="WN" depart="178" />
    <vehicle id="WN_271" type="typeTurn" route="WN" depart="179" />
    <vehicle id="NS_272" type="typeStraight" route="NS" depart="180" />
    <vehicle id="EW_273" type="typeStraight" route="EW" depart="180" />
    <vehicle id="SN_274" type="typeStraight" route="SN" depart="181" />
    <vehicle id="SW_275" type="typeTurn" route="SW" depart="181" />
    <vehicle id="WE_276" type="typeStraight" route="WE" depart="181" />
    <vehicle id="SW_277" type="typeTurn" route="SW" depart="182" />
    <vehicle id="NS_278" type="typeStraight" route="NS" depart="183" />
    <vehicle id="WN_279" type="typeTurn" route="WN" depart="184" />
    <vehicle id="SN_280" type="typeStraight" route="SN" depart="185" />
    <vehicle id="NE_281" type="typeTurn" route="NE" depart="186" />
    <vehicle id="NS_282" type="typeStraight" route="NS" depart="187" />
    <vehicle id="EW_283" type="typeStraight" route="EW" depart="187" />
    <vehicle id="NE_284" type="typeTurn" route="NE" depart="188" />
    <vehicle id="SN_285" type="typeStraight" route="SN" depart="188" />
    <vehicle id="NE_286" type="typeTurn" route="NE" depart="190" />
    <vehicle id="WN_287" type="typeTurn" route="WN" depart="191" />
    <vehicle id="SN_288" type="typeStraight" route="SN" depart="192" />
    <vehicle id="ES_289" type="typeTurn" route="ES" depart="192" />
    <vehicle id="NS_290" type="typeStraight" route="NS" depart="194" />
    <vehicle id="SN_291" type="typeStraight" route="SN" depart="194" />
    <vehicle id="WE_292" type="typeStraight" route="WE" depart="194" />
    <vehicle id="SN_293" type="typeStraight" route="SN" depart="195" />
    <vehicle id="NE_294" type="typeTurn" route="NE" depart="196" />
    <vehicle id="SN_295" type="typeStraight" route="SN" depart="197" />
    <vehicle id="EW_296" type="typeStraight" route="EW" depart="197" />
    <vehicle id="ES_297" type="typeTurn" route="ES" depart="197" />
    <vehicle id="NS_298" type="typeStraight" route="NS" depart="198" />
    <vehicle id="NE_299" type="typeTurn" route="NE" depart="198" />
    <vehicle id="SW_300" type="typeTurn" route="SW" depart="199" />
    <vehicle id="ES_301" type="typeTurn" route="ES" depart="199" />
    <vehicle id="NE_302" type="typeTurn" route="NE" depart="200" />
    <vehicle id="NS_303" type="typeStraight" route="NS" depart="201" />
    <vehicle id="NE_304" type="typeTurn" route="NE" depart="201" />
    <vehicle id="NS_305" type="typeStraight" route="NS" depart="203" />
    <vehicle id="NE_306" type="typeTurn" route="NE" depart="203" />
    <vehicle id="SW_307" type="typeTurn" route="SW" depart="204" />
    <vehicle id="SN_308" type="typeStraight" route="SN" depart="205" />
    <vehicle id="NS_309" type="typeStraight" route="NS" depart="206" />
    <vehicle id="NE_310" type="typeTurn" route="NE" depart="207" />
    <vehicle id="ES_311" type="typeTurn" route="ES" depart="207" />
    <vehicle id="WN_312" type="typeTurn" route="WN" depart="209" />
    <vehicle id="ES_313" type="typeTurn" route="ES" depart="209" />
    <vehicle id="WN_314" type="typeTurn" route="WN" depart="210" />
    <vehicle id="WE_315" type="typeStraight" route="WE" depart="211" />
    <vehicle id="ES_316" type="typeTurn" route="ES" depart="211" />
    <vehicle id="NS_317" type="typeStraight" route="NS" depart="212" />
    <vehicle id="NS_318" type="typeStraight" route="NS" depart="213" />
    <vehicle id="NE_319" type="typeTurn" route="NE" depart="215" />
    <vehicle id="NE_320" type="typeTurn" route="NE" depart="216" />
    <vehicle id="WN_321" type="typeTurn" route="WN" depart="216" />
    <vehicle id="ES_322" type="typeTurn" route="ES" depart="216" />
    <vehicle id="NE_323" type="typeTurn" route="NE" depart="217" />
    <vehicle id="SN_324" type="typeStraight" route="SN" depart="217" />
    <vehicle id="WE_325" type="typeStraight" route="WE" depart="217" />
    <vehicle id="SW_326" type="typeTurn" route="SW" depart="218" />
    <vehicle id="WE_327" type="typeStraight" route="WE" depart="218" />
    <vehicle id="SN_328" type="typeStraight" route="SN" depart="219" />
    <vehicle id="SW_329" type="typeTurn" route="SW" depart="220" />
    <vehicle id="NE_330" type="typeTurn" route="NE" depart="222" />
    <vehicle id="SW_331" type="typeTurn" route="SW" depart="224" />
    <vehicle id="SN_332" type="typeStraight" route="SN" depart="225" />
    <vehicle id="WN_333" type="typeTurn" route="WN" depart="225" />
    <vehicle id="ES_334" type="typeTurn" route="ES" depart="225" />
    <vehicle id="EW_335" type="typeStraight" route="EW" depart="226" />
    <vehicle id="SW_336" type="typeTurn" route="SW" depart="227" />
    <vehicle id="NE_337" type="typeTurn" route="NE" depart="228" />
    <vehicle id="SW_338" type="typeTurn" route="SW" depart="228" />
    <vehicle id="WE_339" type="typeStraight" route="WE" depart="229" />
    <vehicle id="EW_340" type="typeStraight" route="EW" depart="229" />
    <vehicle id="ES_341" type="typeTurn" route="ES" depart="230" />
    <vehicle id="NS_342" type="typeStraight" route="NS" depart="231" />
    <vehicle id="NE_343" type="typeTurn" route="NE" depart="231" />
    <vehicle id="WE_344" type="typeStraight" route="WE" depart="231" />
    <vehicle id="NE_345" type="typeTurn" route="NE" depart="232" />
    <vehicle id="EW_346" type="typeStraight" route="EW" depart="232" />
    <vehicle id="NS_347" type="typeStraight" route="NS" depart="233" />
    <vehicle id="NE_348" type="typeTurn" route="NE" depart="233" />
    <vehicle id="SN_349" type="typeStraight" route="SN" depart="234" />
    <vehicle id="WN_350" type="typeTurn" route="WN" depart="234" />
    <vehicle id="EW_351" type="typeStraight" route="EW" depart="234" />
    <vehicle id="WN_352" type="typeTurn" route="WN" depart="235" />
    <vehicle id="SN_353" type="typeStraight" route="SN" depart="236" />
    <vehicle id="SW_354" type="typeTurn" route="SW" depart="236" />
    <vehicle id="ES_355" type="typeTurn" route="ES" depart="237" />
    <vehicle id="SN_356" type="typeStraight" route="SN" depart="238" />
    <vehicle id="WE_357" type="typeStraight" route="WE" depart="238" />
    <vehicle id="NS_358" type="typeStraight" route="NS" depart="239" />
    <vehicle id="SW_359" type="typeTurn" route="SW" depart="239" />
    <vehicle id="EW_360" type="typeStraight" route="EW" depart="239" />
    <vehicle id="WE_361" type="typeStraight" route="WE" depart="240" />
    <vehicle id="WE_362" type="typeStraight" route="WE" depart="241" />
    <vehicle id="EW_363" type="typeStraight" route="EW" depart="241" />
    <vehicle id="NE_364" type="typeTurn" route="NE" depart="242" />
    <vehicle id="SW_365" type="typeTurn" route="SW" depart="242" />
    <vehicle id="WE_366" type="typeStraight" route="WE" depart="244" />
    <vehicle id="NE_367" type="typeTurn" route="NE" depart="245" />
    <vehicle id="SN_368" type="typeStraight" route="SN" depart="245" />
    <vehicle id="WN_369" type="typeTurn" route="WN" depart="246" />
    <vehicle id="SN_370" type="typeStraight" route="SN" depart="247" />
    <vehicle id="WE_371" type="typeStraight" route="WE" depart="247" />
    <vehicle id="WN_372" type="typeTurn" route="WN" depart="247" />
    <vehicle id="NS_373" type="typeStraight" route="NS" depart="248" />
    <vehicle id="EW_374" type="typeStraight" route="EW" depart="248" />
    <vehicle id="NS_375" type="typeStraight" route="NS" depart="250" />
    <vehicle id="WE_376" type="typeStraight" route="WE" depart="250" />
    <vehicle id="NE_377" type="typeTurn" route="NE" depart="252" />
    <vehicle id="WN_378" type="typeTurn" route="WN" depart="253" />
    <vehicle id="SW_379" type="typeTurn" route="SW" depart="254" />
    <vehicle id="WN_380" type="typeTurn" route="WN" depart="254" />
    <vehicle id="SN_381" type="typeStraight" route="SN" depart="255" />
    <vehicle id="SN_382" type="typeStraight" route="SN" depart="256" />
    <vehicle id="WN_383" type="typeTurn" route="WN" depart="256" />
    <vehicle id="WE_384" type="typeStraight" route="WE" depart="258" />
    <vehicle id="WN_385" type="typeTurn" route="WN" depart="259" />
    <vehicle id="SN_386" type="typeStraight" route="SN" depart="260" />
    <vehicle id="EW_387" type="typeStraight" route="EW" depart="261" />
    <vehicle id="NS_388" type="typeStraight" route="NS" depart="262" />
    <vehicle id="EW_389" type="typeStraight" route="EW" depart="262" />
    <vehicle id="ES_390" type="typeTurn" route="ES" depart="262" />
    <vehicle id="NS_391" type="typeStraight" route="NS" depart="264" />
    <vehicle id="NS_392" type="typeStraight" route="NS" depart="265" />
    <vehicle id="SN_393" type="typeStraight" route="SN" depart="265" />
    <vehicle id="EW_394" type="typeStraight" route="EW" depart="265" />
    <vehicle id="SW_395" type="typeTurn" route="SW" depart="266" />
    <vehicle id="WE_396" type="typeStraight" route="WE" depart="266" />
    <vehicle id="WN_397" type="typeTurn" route="WN" depart="266" />
    <vehicle id="EW_398" type="typeStraight" route="EW" depart="266" />
    <vehicle id="WN_399" type="typeTurn" route="WN" depart="268" />
    <vehicle id="NS_400" type="typeStraight" route="NS" depart="269" />
    <vehicle id="NE_401" type="typeTurn" route="NE" depart="269" />
    <vehicle id="SN_402" type="typeStraight" route="SN" depart="269" />
    <vehicle id="NS_403" type="typeStraight" route="NS" depart="270" />
    <vehicle id="SN_404" type="typeStraight" route="SN" depart="270" />
    <vehicle id="ES_405" type="typeTurn" route="ES" depart="270" />
    <vehicle id="NS_406" type="typeStraight" route="NS" depart="271" />
    <vehicle id="WE_407" type="typeStraight" route="WE" depart="271" />
    <vehicle id="WE_408" type="typeStraight" route="WE" depart="272" />
    <vehicle id="WN_409" type="typeTurn" route="WN" depart="272" />
    <vehicle id="WE_410" type="typeStraight" route="WE" depart="273" />
    <vehicle id="NE_411" type="typeTurn" route="NE" depart="274" />
    <vehicle id="NE_412" type="typeTurn" route="NE" depart="275" />
    <vehicle id="SN_413" type="typeStraight" route="SN" depart="276" />
    <vehicle id="EW_414" type="typeStraight" route="EW" depart="276" />
    <vehicle id="ES_415" type="typeTurn" route="ES" depart="276" />
    <vehicle id="WE_416" type="typeStraight" route="WE" depart="277" />
    <vehicle id="WN_417" type="typeTurn" route="WN" depart="277" />
    <vehicle id="NE_418" type="typeTurn" route="NE" depart="278" />
    <vehicle id="SN_419" type="typeStraight" route="SN" depart="278" />
    <vehicle id="EW_420" type="typeStraight" route="EW" depart="278" />
    <vehicle id="NS_421" type="typeStraight" route="NS" depart="279" />
    <vehicle id="EW_422" type="typeStraight" route="EW" depart="279" />