<?xml version="1.0" encoding="UTF-8"?>

<!-- generated on 12/14/20 19:30:57 by Eclipse SUMO netedit Version 1.7.0
<configuration xmlns:xsi="http://www.w3.org/2001/XMLSchema-instance" xsi:noNamespaceSchemaLocation="http://sumo.dlr.de/xsd/netconvertConfiguration.xsd">

    <input>
        <sumo-net-file value="C:\Users\LIYAN\Desktop\sumo_data\single_cross.net.xml"/>
    </input>

    <output>
        <output-file value="C:\Users\LIYAN\Desktop\sumo_data\single_cross.net.xml"/>
    </output>

    <processing>
        <geometry.min-radius.fix.railways value="false"/>
        <geometry.max-grade.fix value="false"/>
        <offset.disable-normalization value="true"/>
        <lefthand value="false"/>
    </processing>

    <junctions>
        <no-turnarounds value="true"/>
        <junctions.corner-detail value="5"/>
        <junctions.limit-turn-speed value="5.5"/>
        <rectangular-lane-cut value="false"/>
    </junctions>

    <pedestrian>
        <walkingareas value="false"/>
    </pedestrian>

    <netedit>
        <additional-files value="C:\Users\LIYAN\Desktop\sumo_data\single_cross1.add.xml"/>
    </netedit>

    <report>
        <aggregate-warnings value="5"/>
    </report>

</configuration>
-->

<additional xmlns:xsi="http://www.w3.org/2001/XMLSchema-instance" xsi:noNamespaceSchemaLocation="http://sumo.dlr.de/xsd/additional_file.xsd">
    <e1Detector id="1i_s_loop" lane="1i_0" pos="150.00" freq="900.00" file="detector/e1Detector_1i_s.xml"/>
    <e1Detector id="1i_t_loop" lane="1i_1" pos="150.00" freq="900.00" file="detector/e1Detector_1i_t.xml"/>
    <e1Detector id="2i_s_loop" lane="2i_0" pos="150.00" freq="900.00" file="detector/e1Detector_2i_s.xml"/>
    <e1Detector id="2i_t_loop" lane="2i_1" pos="150.00" freq="900.00" file="detector/e1Detector_2i_t.xml"/>
    <e1Detector id="3i_s_loop" lane="3i_0" pos="150.00" freq="900.00" file="detector/e1Detector_3i_s.xml"/>
    <e1Detector id="3i_t_loop" lane="3i_1" pos="150.00" freq="900.00" file="detector/e1Detector_3i_t.xml"/>
    <e1Detector id="4i_s_loop" lane="4i_0" pos="150.00" freq="900.00" file="detector/e1Detector_4i_s.xml"/>
    <e1Detector id="4i_t_loop" lane="4i_1" pos="150.00" freq="900.00" file="detector/e1Detector_4i_t.xml"/>
</additional>
