<routes>
        <vType id="typeStraight" accel="1" decel="4.5" sigma="0.5" length="5" minGap="2.5" maxSpeed="13.9" guiShape="passenger"/>
        <vType id="typeTurn" accel="1" decel="4.5" sigma="0.5" length="5" minGap="2.5" maxSpeed="13.9" guiShape="passenger"/>

        <route id="WE" edges="1i 2o" />
        <route id="EW" edges="2i 1o " />
        <route id="NS" edges="4i 3o " />
        <route id="SN" edges="3i 4o " />
        <route id="NE" edges="4i 2o" />
        <route id="ES" edges="2i 3o " />
        <route id="SW" edges="3i 1o " />
        <route id="WN" edges="1i 4o " />
    <vehicle id="EW_0" type="typeStraight" route="EW" depart="0" />
    <vehicle id="NS_1" type="typeStraight" route="NS" depart="0" />
    <vehicle id="SN_2" type="typeStraight" route="SN" depart="0" />
    <vehicle id="WN_3" type="typeTurn" route="WN" depart="0" />
    <vehicle id="WE_4" type="typeStraight" route="WE" depart="1" />
    <vehicle id="EW_5" type="typeStraight" route="EW" depart="1" />
    <vehicle id="NS_6" type="typeStraight" route="NS" depart="1" />
    <vehicle id="SN_7" type="typeStraight" route="SN" depart="1" />
    <vehicle id="NE_8" type="typeTurn" route="NE" depart="1" />
    <vehicle id="ES_9" type="typeTurn" route="ES" depart="1" />
    <vehicle id="WE_10" type="typeStraight" route="WE" depart="2" />
    <vehicle id="EW_11" type="typeStraight" route="EW" depart="2" />
    <vehicle id="SN_12" type="typeStraight" route="SN" depart="2" />
    <vehicle id="WN_13" type="typeTurn" route="WN" depart="2" />
    <vehicle id="EW_14" type="typeStraight" route="EW" depart="3" />
    <vehicle id="NS_15" type="typeStraight" route="NS" depart="3" />
    <vehicle id="SN_16" type="typeStraight" route="SN" depart="3" />
    <vehicle id="WE_17" type="typeStraight" route="WE" depart="4" />
    <vehicle id="NS_18" type="typeStraight" route="NS" depart="4" />
    <vehicle id="SN_19" type="typeStraight" route="SN" depart="4" />
    <vehicle id="EW_20" type="typeStraight" route="EW" depart="5" />
    <vehicle id="NS_21" type="typeStraight" route="NS" depart="5" />
    <vehicle id="SN_22" type="typeStraight" route="SN" depart="5" />
    <vehicle id="NE_23" type="typeTurn" route="NE" depart="5" />
    <vehicle id="SW_24" type="typeTurn" route="SW" depart="5" />
    <vehicle id="EW_25" type="typeStraight" route="EW" depart="6" />
    <vehicle id="NS_26" type="typeStraight" route="NS" depart="6" />
    <vehicle id="SN_27" type="typeStraight" route="SN" depart="6" />
    <vehicle id="WE_28" type="typeStraight" route="WE" depart="7" />
    <vehicle id="NS_29" type="typeStraight" route="NS" depart="7" />
    <vehicle id="SN_30" type="typeStraight" route="SN" depart="7" />
    <vehicle id="NS_31" type="typeStraight" route="NS" depart="8" />
    <vehicle id="SN_32" type="typeStraight" route="SN" depart="8" />
    <vehicle id="EW_33" type="typeStraight" route="EW" depart="9" />
    <vehicle id="SN_34" type="typeStraight" route="SN" depart="9" />
    <vehicle id="WE_35" type="typeStraight" route="WE" depart="10" />
    <vehicle id="EW_36" type="typeStraight" route="EW" depart="10" />
    <vehicle id="NS_37" type="typeStraight" route="NS" depart="10" />
    <vehicle id="WE_38" type="typeStraight" route="WE" depart="11" />
    <vehicle id="EW_39" type="typeStraight" route="EW" depart="11" />
    <vehicle id="NS_40" type="typeStraight" route="NS" depart="11" />
    <vehicle id="SW_41" type="typeTurn" route="SW" depart="11" />
    <vehicle id="EW_42" type="typeStraight" route="EW" depart="12" />
    <vehicle id="NE_43" type="typeTurn" route="NE" depart="12" />
    <vehicle id="WE_44" type="typeStraight" route="WE" depart="13" />
    <vehicle id="NS_45" type="typeStraight" route="NS" depart="13" />
    <vehicle id="SN_46" type="typeStraight" route="SN" depart="13" />
    <vehicle id="WE_47" type="typeStraight" route="WE" depart="14" />
    <vehicle id="EW_48" type="typeStraight" route="EW" depart="14" />
    <vehicle id="WN_49" type="typeTurn" route="WN" depart="14" />
    <vehicle id="EW_50" type="typeStraight" route="EW" depart="15" />
    <vehicle id="SN_51" type="typeStraight" route="SN" depart="15" />
    <vehicle id="NE_52" type="typeTurn" route="NE" depart="15" />
    <vehicle id="SW_53" type="typeTurn" route="SW" depart="15" />
    <vehicle id="NS_54" type="typeStraight" route="NS" depart="16" />
    <vehicle id="SN_55" type="typeStraight" route="SN" depart="16" />
    <vehicle id="SW_56" type="typeTurn" route="SW" depart="16" />
    <vehicle id="WE_57" type="typeStraight" route="WE" depart="17" />
    <vehicle id="SN_58" type="typeStraight" route="SN" depart="17" />
    <vehicle id="WE_59" type="typeStraight" route="WE" depart="18" />
    <vehicle id="EW_60" type="typeStraight" route="EW" depart="18" />
    <vehicle id="NS_61" type="typeStraight" route="NS" depart="18" />
    <vehicle id="WE_62" type="typeStraight" route="WE" depart="19" />
    <vehicle id="EW_63" type="typeStraight" route="EW" depart="19" />
    <vehicle id="NS_64" type="typeStraight" route="NS" depart="19" />
    <vehicle id="SN_65" type="typeStraight" route="SN" depart="19" />
    <vehicle id="WE_66" type="typeStraight" route="WE" depart="20" />
    <vehicle id="NS_67" type="typeStraight" route="NS" depart="20" />
    <vehicle id="ES_68" type="typeTurn" route="ES" depart="20" />
    <vehicle id="WE_69" type="typeStraight" route="WE" depart="21" />
    <vehicle id="EW_70" type="typeStraight" route="EW" depart="21" />
    <vehicle id="SN_71" type="typeStraight" route="SN" depart="21" />
    <vehicle id="WN_72" type="typeTurn" route="WN" depart="21" />
    <vehicle id="WE_73" type="typeStraight" route="WE" depart="22" />
    <vehicle id="EW_74" type="typeStraight" route="EW" depart="22" />
    <vehicle id="NS_75" type="typeStraight" route="NS" depart="22" />
    <vehicle id="SN_76" type="typeStraight" route="SN" depart="22" />
    <vehicle id="WN_77" type="typeTurn" route="WN" depart="22" />
    <vehicle id="WE_78" type="typeStraight" route="WE" depart="23" />
    <vehicle id="EW_79" type="typeStraight" route="EW" depart="23" />
    <vehicle id="SN_80" type="typeStraight" route="SN" depart="23" />
    <vehicle id="NE_81" type="typeTurn" route="NE" depart="23" />
    <vehicle id="WE_82" type="typeStraight" route="WE" depart="24" />
    <vehicle id="NS_83" type="typeStraight" route="NS" depart="24" />
    <vehicle id="ES_84" type="typeTurn" route="ES" depart="24" />
    <vehicle id="SN_85" type="typeStraight" route="SN" depart="25" />
    <vehicle id="WN_86" type="typeTurn" route="WN" depart="25" />
    <vehicle id="WE_87" type="typeStraight" route="WE" depart="26" />
    <vehicle id="NS_88" type="typeStraight" route="NS" depart="26" />
    <vehicle id="WE_89" type="typeStraight" route="WE" depart="27" />
    <vehicle id="NS_90" type="typeStraight" route="NS" depart="27" />
    <vehicle id="SN_91" type="typeStraight" route="SN" depart="27" />
    <vehicle id="WE_92" type="typeStraight" route="WE" depart="28" />
    <vehicle id="EW_93" type="typeStraight" route="EW" depart="28" />
    <vehicle id="NS_94" type="typeStraight" route="NS" depart="28" />
    <vehicle id="NE_95" type="typeTurn" route="NE" depart="28" />
    <vehicle id="SW_96" type="typeTurn" route="SW" depart="28" />
    <vehicle id="WN_97" type="typeTurn" route="WN" depart="28" />
    <vehicle id="WE_98" type="typeStraight" route="WE" depart="29" />
    <vehicle id="NS_99" type="typeStraight" route="NS" depart="29" />
    <vehicle id="SN_100" type="typeStraight" route="SN" depart="29" />
    <vehicle id="WE_101" type="typeStraight" route="WE" depart="30" />
    <vehicle id="EW_102" type="typeStraight" route="EW" depart="30" />
    <vehicle id="NS_103" type="typeStraight" route="NS" depart="30" />
    <vehicle id="EW_104" type="typeStraight" route="EW" depart="31" />
    <vehicle id="NS_105" type="typeStraight" route="NS" depart="31" />
    <vehicle id="NE_106" type="typeTurn" route="NE" depart="31" />
    <vehicle id="WE_107" type="typeStraight" route="WE" depart="32" />
    <vehicle id="EW_108" type="typeStraight" route="EW" depart="32" />
    <vehicle id="NS_109" type="typeStraight" route="NS" depart="32" />
    <vehicle id="WN_110" type="typeTurn" route="WN" depart="32" />
    <vehicle id="ES_111" type="typeTurn" route="ES" depart="33" />
    <vehicle id="NS_112" type="typeStraight" route="NS" depart="34" />
    <vehicle id="SN_113" type="typeStraight" route="SN" depart="34" />
    <vehicle id="NE_114" type="typeTurn" route="NE" depart="34" />
    <vehicle id="EW_115" type="typeStraight" route="EW" depart="35" />
    <vehicle id="SN_116" type="typeStraight" route="SN" depart="35" />
    <vehicle id="WN_117" type="typeTurn" route="WN" depart="35" />
    <vehicle id="WE_118" type="typeStraight" route="WE" depart="36" />
    <vehicle id="EW_119" type="typeStraight" route="EW" depart="36" />
    <vehicle id="NS_120" type="typeStraight" route="NS" depart="36" />
    <vehicle id="WE_121" type="typeStraight" route="WE" depart="37" />
    <vehicle id="EW_122" type="typeStraight" route="EW" depart="37" />
    <vehicle id="NS_123" type="typeStraight" route="NS" depart="37" />
    <vehicle id="WE_124" type="typeStraight" route="WE" depart="38" />
    <vehicle id="EW_125" type="typeStraight" route="EW" depart="38" />
    <vehicle id="NS_126" type="typeStraight" route="NS" depart="38" />
    <vehicle id="WE_127" type="typeStraight" route="WE" depart="39" />
    <vehicle id="EW_128" type="typeStraight" route="EW" depart="39" />
    <vehicle id="SW_129" type="typeTurn" route="SW" depart="39" />
    <vehicle id="NE_130" type="typeTurn" route="NE" depart="40" />
    <vehicle id="SN_131" type="typeStraight" route="SN" depart="41" />
    <vehicle id="ES_132" type="typeTurn" route="ES" depart="41" />
    <vehicle id="WE_133" type="typeStraight" route="WE" depart="42" />
    <vehicle id="NS_134" type="typeStraight" route="NS" depart="42" />
    <vehicle id="SN_135" type="typeStraight" route="SN" depart="42" />
    <vehicle id="SW_136" type="typeTurn" route="SW" depart="42" />
    <vehicle id="WN_137" type="typeTurn" route="WN" depart="42" />
    <vehicle id="WE_138" type="typeStraight" route="WE" depart="43" />
    <vehicle id="SN_139" type="typeStraight" route="SN" depart="43" />
    <vehicle id="EW_140" type="typeStraight" route="EW" depart="44" />
    <vehicle id="SN_141" type="typeStraight" route="SN" depart="44" />
    <vehicle id="SW_142" type="typeTurn" route="SW" depart="44" />
    <vehicle id="EW_143" type="typeStraight" route="EW" depart="45" />
    <vehicle id="SN_144" type="typeStraight" route="SN" depart="45" />
    <vehicle id="WE_145" type="typeStraight" route="WE" depart="46" />
    <vehicle id="NS_146" type="typeStraight" route="NS" depart="46" />
    <vehicle id="WN_147" type="typeTurn" route="WN" depart="46" />
    <vehicle id="EW_148" type="typeStraight" route="EW" depart="47" />
    <vehicle id="NS_149" type="typeStraight" route="NS" depart="47" />
    <vehicle id="WE_150" type="typeStraight" route="WE" depart="48" />
    <vehicle id="EW_151" type="typeStraight" route="EW" depart="48" />
    <vehicle id="NS_152" type="typeStraight" route="NS" depart="48" />
    <vehicle id="SN_153" type="typeStraight" route="SN" depart="48" />
    <vehicle id="WE_154" type="typeStraight" route="WE" depart="49" />
    <vehicle id="EW_155" type="typeStraight" route="EW" depart="49" />
    <vehicle id="NS_156" type="typeStraight" route="NS" depart="49" />
    <vehicle id="SN_157" type="typeStraight" route="SN" depart="49" />
    <vehicle id="WE_158" type="typeStraight" route="WE" depart="50" />
    <vehicle id="EW_159" type="typeStraight" route="EW" depart="50" />
    <vehicle id="NS_160" type="typeStraight" route="NS" depart="50" />
    <vehicle id="ES_161" type="typeTurn" route="ES" depart="50" />
    <vehicle id="SW_162" type="typeTurn" route="SW" depart="50" />
    <vehicle id="EW_163" type="typeStraight" route="EW" depart="51" />
    <vehicle id="SW_164" type="typeTurn" route="SW" depart="51" />
    <vehicle id="WN_165" type="typeTurn" route="WN" depart="51" />
    <vehicle id="WE_166" type="typeStraight" route="WE" depart="52" />
    <vehicle id="EW_167" type="typeStraight" route="EW" depart="52" />
    <vehicle id="SN_168" type="typeStraight" route="SN" depart="52" />
    <vehicle id="SW_169" type="typeTurn" route="SW" depart="52" />
    <vehicle id="WE_170" type="typeStraight" route="WE" depart="53" />
    <vehicle id="EW_171" type="typeStraight" route="EW" depart="53" />
    <vehicle id="SN_172" type="typeStraight" route="SN" depart="53" />
    <vehicle id="SW_173" type="typeTurn" route="SW" depart="53" />
    <vehicle id="WE_174" type="typeStraight" route="WE" depart="54" />
    <vehicle id="NS_175" type="typeStraight" route="NS" depart="54" />
    <vehicle id="SN_176" type="typeStraight" route="SN" depart="54" />
    <vehicle id="NS_177" type="typeStraight" route="NS" depart="55" />
    <vehicle id="EW_178" type="typeStraight" route="EW" depart="56" />
    <vehicle id="EW_179" type="typeStraight" route="EW" depart="57" />
    <vehicle id="SN_180" type="typeStraight" route="SN" depart="57" />
    <vehicle id="NE_181" type="typeTurn" route="NE" depart="57" />
    <vehicle id="WE_182" type="typeStraight" route="WE" depart="58" />
    <vehicle id="EW_183" type="typeStraight" route="EW" depart="58" />
    <vehicle id="NS_184" type="typeStraight" route="NS" depart="58" />
    <vehicle id="ES_185" type="typeTurn" route="ES" depart="58" />
    <vehicle id="WE_186" type="typeStraight" route="WE" depart="59" />
    <vehicle id="EW_187" type="typeStraight" route="EW" depart="59" />
    <vehicle id="NS_188" type="typeStraight" route="NS" depart="59" />
    <vehicle id="WE_189" type="typeStraight" route="WE" depart="60" />
    <vehicle id="EW_190" type="typeStraight" route="EW" depart="60" />
    <vehicle id="NS_191" type="typeStraight" route="NS" depart="60" />
    <vehicle id="WE_192" type="typeStraight" route="WE" depart="61" />
    <vehicle id="NS_193" type="typeStraight" route="NS" depart="61" />
    <vehicle id="SN_194" type="typeStraight" route="SN" depart="61" />
    <vehicle id="ES_195" type="typeTurn" route="ES" depart="61" />
    <vehicle id="WE_196" type="typeStraight" route="WE" depart="62" />
    <vehicle id="EW_197" type="typeStraight" route="EW" depart="62" />
    <vehicle id="NS_198" type="typeStraight" route="NS" depart="62" />
    <vehicle id="SN_199" type="typeStraight" route="SN" depart="62" />
    <vehicle id="ES_200" type="typeTurn" route="ES" depart="62" />
    <vehicle id="WE_201" type="typeStraight" route="WE" depart="63" />
    <vehicle id="NS_202" type="typeStraight" route="NS" depart="63" />
    <vehicle id="SN_203" type="typeStraight" route="SN" depart="63" />
    <vehicle id="NE_204" type="typeTurn" route="NE" depart="63" />
    <vehicle id="EW_205" type="typeStraight" route="EW" depart="64" />
    <vehicle id="ES_206" type="typeTurn" route="ES" depart="64" />
    <vehicle id="SW_207" type="typeTurn" route="SW" depart="64" />
    <vehicle id="EW_208" type="typeStraight" route="EW" depart="65" />
    <vehicle id="WN_209" type="typeTurn" route="WN" depart="65" />
    <vehicle id="WE_210" type="typeStraight" route="WE" depart="66" />
    <vehicle id="EW_211" type="typeStraight" route="EW" depart="66" />
    <vehicle id="NS_212" type="typeStraight" route="NS" depart="66" />
    <vehicle id="WE_213" type="typeStraight" route="WE" depart="67" />
    <vehicle id="SN_214" type="typeStraight" route="SN" depart="67" />
    <vehicle id="SW_215" type="typeTurn" route="SW" depart="67" />
    <vehicle id="WN_216" type="typeTurn" route="WN" depart="67" />
    <vehicle id="WE_217" type="typeStraight" route="WE" depart="68" />
    <vehicle id="SN_218" type="typeStraight" route="SN" depart="68" />
    <vehicle id="ES_219" type="typeTurn" route="ES" depart="68" />
    <vehicle id="WE_220" type="typeStraight" route="WE" depart="69" />
    <vehicle id="NE_221" type="typeTurn" route="NE" depart="69" />
    <vehicle id="WE_222" type="typeStraight" route="WE" depart="70" />
    <vehicle id="EW_223" type="typeStraight" route="EW" depart="70" />
    <vehicle id="NS_224" type="typeStraight" route="NS" depart="70" />
    <vehicle id="SN_225" type="typeStraight" route="SN" depart="70" />
    <vehicle id="SW_226" type="typeTurn" route="SW" depart="70" />
    <vehicle id="SN_227" type="typeStraight" route="SN" depart="71" />
    <vehicle id="WE_228" type="typeStraight" route="WE" depart="72" />
    <vehicle id="EW_229" type="typeStraight" route="EW" depart="72" />
    <vehicle id="NS_230" type="typeStraight" route="NS" depart="72" />
    <vehicle id="WN_231" type="typeTurn" route="WN" depart="72" />
    <vehicle id="EW_232" type="typeStraight" route="EW" depart="73" />
    <vehicle id="NS_233" type="typeStraight" route="NS" depart="73" />
    <vehicle id="ES_234" type="typeTurn" route="ES" depart="73" />
    <vehicle id="WN_235" type="typeTurn" route="WN" depart="73" />
    <vehicle id="WE_236" type="typeStraight" route="WE" depart="74" />
    <vehicle id="NS_237" type="typeStraight" route="NS" depart="74" />
    <vehicle id="SW_238" type="typeTurn" route="SW" depart="74" />
    <vehicle id="WE_239" type="typeStraight" route="WE" depart="75" />
    <vehicle id="NS_240" type="typeStraight" route="NS" depart="75" />
    <vehicle id="WE_241" type="typeStraight" route="WE" depart="76" />
    <vehicle id="EW_242" type="typeStraight" route="EW" depart="76" />
    <vehicle id="SN_243" type="typeStraight" route="SN" depart="76" />
    <vehicle id="EW_244" type="typeStraight" route="EW" depart="77" />
    <vehicle id="SN_245" type="typeStraight" route="SN" depart="77" />
    <vehicle id="ES_246" type="typeTurn" route="ES" depart="77" />
    <vehicle id="SW_247" type="typeTurn" route="SW" depart="77" />
    <vehicle id="WN_248" type="typeTurn" route="WN" depart="77" />
    <vehicle id="WE_249" type="typeStraight" route="WE" depart="78" />
    <vehicle id="NS_250" type="typeStraight" route="NS" depart="78" />
    <vehicle id="SN_251" type="typeStraight" route="SN" depart="78" />
    <vehicle id="WE_252" type="typeStraight" route="WE" depart="79" />
    <vehicle id="EW_253" type="typeStraight" route="EW" depart="79" />
    <vehicle id="NS_254" type="typeStraight" route="NS" depart="79" />
    <vehicle id="SN_255" type="typeStraight" route="SN" depart="79" />
    <vehicle id="NE_256" type="typeTurn" route="NE" depart="79" />
    <vehicle id="ES_257" type="typeTurn" route="ES" depart="79" />
    <vehicle id="EW_258" type="typeStraight" route="EW" depart="80" />
    <vehicle id="SN_259" type="typeStraight" route="SN" depart="80" />
    <vehicle id="WE_260" type="typeStraight" route="WE" depart="81" />
    <vehicle id="EW_261" type="typeStraight" route="EW" depart="81" />
    <vehicle id="NS_262" type="typeStraight" route="NS" depart="81" />
    <vehicle id="SN_263" type="typeStraight" route="SN" depart="81" />
    <vehicle id="WE_264" type="typeStraight" route="WE" depart="82" />
    <vehicle id="NS_265" type="typeStraight" route="NS" depart="82" />
    <vehicle id="SN_266" type="typeStraight" route="SN" depart="82" />
    <vehicle id="WN_267" type="typeTurn" route="WN" depart="82" />
    <vehicle id="SN_268" type="typeStraight" route="SN" depart="83" />
    <vehicle id="EW_269" type="typeStraight" route="EW" depart="84" />
    <vehicle id="EW_270" type="typeStraight" route="EW" depart="85" />
    <vehicle id="NS_271" type="typeStraight" route="NS" depart="85" />
    <vehicle id="SN_272" type="typeStraight" route="SN" depart="85" />
    <vehicle id="NE_273" type="typeTurn" route="NE" depart="85" />
    <vehicle id="WE_274" type="typeStraight" route="WE" depart="86" />
    <vehicle id="SN_275" type="typeStraight" route="SN" depart="86" />
    <vehicle id="NS_276" type="typeStraight" route="NS" depart="87" />
    <vehicle id="SN_277" type="typeStraight" route="SN" depart="87" />
    <vehicle id="WN_278" type="typeTurn" route="WN" depart="87" />
    <vehicle id="WE_279" type="typeStraight" route="WE" depart="88" />
    <vehicle id="EW_280" type="typeStraight" route="EW" depart="88" />
    <vehicle id="SN_281" type="typeStraight" route="SN" depart="88" />
    <vehicle id="ES_282" type="typeTurn" route="ES" depart="88" />
    <vehicle id="EW_283" type="typeStraight" route="EW" depart="89" />
    <vehicle id="NS_284" type="typeStraight" route="NS" depart="89" />
    <vehicle id="SN_285" type="typeStraight" route="SN" depart="89" />
    <vehicle id="NE_286" type="typeTurn" route="NE" depart="89" />
    <vehicle id="WE_287" type="typeStraight" route="WE" depart="90" />
    <vehicle id="SN_288" type="typeStraight" route="SN" depart="90" />
    <vehicle id="WE_289" type="typeStraight" route="WE" depart="91" />
    <vehicle id="NS_290" type="typeStraight" route="NS" depart="91" />
    <vehicle id="ES_291" type="typeTurn" route="ES" depart="91" />
    <vehicle id="WE_292" type="typeStraight" route="WE" depart="92" />
    <vehicle id="EW_293" type="typeStraight" route="EW" depart="92" />
    <vehicle id="NS_294" type="typeStraight" route="NS" depart="92" />
    <vehicle id="SN_295" type="typeStraight" route="SN" depart="92" />
    <vehicle id="WE_296" type="typeStraight" route="WE" depart="93" />
    <vehicle id="SN_297" type="typeStraight" route="SN" depart="93" />
    <vehicle id="WE_298" type="typeStraight" route="WE" depart="94" />
    <vehicle id="EW_299" type="typeStraight" route="EW" depart="94" />
    <vehicle id="SW_300" type="typeTurn" route="SW" depart="94" />
    <vehicle id="SN_301" type="typeStraight" route="SN" depart="95" />
    <vehicle id="WE_302" type="typeStraight" route="WE" depart="96" />
    <vehicle id="SN_303" type="typeStraight" route="SN" depart="96" />
    <vehicle id="NE_304" type="typeTurn" route="NE" depart="96" />
    <vehicle id="WN_305" type="typeTurn" route="WN" depart="96" />
    <vehicle id="NS_306" type="typeStraight" route="NS" depart="97" />
    <vehicle id="SN_307" type="typeStraight" route="SN" depart="97" />
    <vehicle id="WE_308" type="typeStraight" route="WE" depart="98" />
    <vehicle id="SN_309" type="typeStraight" route="SN" depart="98" />
    <vehicle id="NS_310" type="typeStraight" route="NS" depart="99" />
    <vehicle id="WE_311" type="typeStraight" route="WE" depart="100" />
    <vehicle id="EW_312" type="typeStraight" route="EW" depart="100" />
    <vehicle id="NS_313" type="typeStraight" route="NS" depart="100" />
    <vehicle id="ES_314" type="typeTurn" route="ES" depart="100" />
    <vehicle id="WE_315" type="typeStraight" route="WE" depart="101" />
    <vehicle id="EW_316" type="typeStraight" route="EW" depart="101" />
    <vehicle id="NS_317" type="typeStraight" route="NS" depart="101" />
    <vehicle id="SN_318" type="typeStraight" route="SN" depart="101" />
    <vehicle id="NE_319" type="typeTurn" route="NE" depart="101" />
    <vehicle id="EW_320" type="typeStraight" route="EW" depart="102" />
    <vehicle id="EW_321" type="typeStraight" route="EW" depart="103" />
    <vehicle id="NS_322" type="typeStraight" route="NS" depart="103" />
    <vehicle id="SN_323" type="typeStraight" route="SN" depart="103" />
    <vehicle id="WE_324" type="typeStraight" route="WE" depart="104" />
    <vehicle id="EW_325" type="typeStraight" route="EW" depart="104" />
    <vehicle id="SN_326" type="typeStraight" route="SN" depart="104" />
    <vehicle id="ES_327" type="typeTurn" route="ES" depart="104" />
    <vehicle id="WE_328" type="typeStraight" route="WE" depart="105" />
    <vehicle id="SN_329" type="typeStraight" route="SN" depart="106" />
    <vehicle id="NE_330" type="typeTurn" route="NE" depart="106" />
    <vehicle id="EW_331" type="typeStraight" route="EW" depart="107" />
    <vehicle id="NS_332" type="typeStraight" route="NS" depart="107" />
    <vehicle id="WE_333" type="typeStraight" route="WE" depart="108" />
    <vehicle id="NS_334" type="typeStraight" route="NS" depart="108" />
    <vehicle id="SN_335" type="typeStraight" route="SN" depart="108" />
    <vehicle id="NE_336" type="typeTurn" route="NE" depart="108" />
    <vehicle id="WE_337" type="typeStraight" route="WE" depart="109" />
    <vehicle id="EW_338" type="typeStraight" route="EW" depart="109" />
    <vehicle id="SW_339" type="typeTurn" route="SW" depart="109" />
    <vehicle id="WE_340" type="typeStraight" route="WE" depart="110" />
    <vehicle id="EW_341" type="typeStraight" route="EW" depart="110" />
    <vehicle id="NS_342" type="typeStraight" route="NS" depart="110" />
    <vehicle id="SW_343" type="typeTurn" route="SW" depart="110" />
    <vehicle id="WE_344" type="typeStraight" route="WE" depart="111" />
    <vehicle id="EW_345" type="typeStraight" route="EW" depart="111" />
    <vehicle id="SN_346" type="typeStraight" route="SN" depart="111" />
    <vehicle id="SW_347" type="typeTurn" route="SW" depart="111" />
    <vehicle id="WE_348" type="typeStraight" route="WE" depart="112" />
    <vehicle id="EW_349" type="typeStraight" route="EW" depart="112" />
    <vehicle id="NS_350" type="typeStraight" route="NS" depart="112" />
    <vehicle id="SN_351" type="typeStraight" route="SN" depart="112" />
    <vehicle id="WE_352" type="typeStraight" route="WE" depart="113" />
    <vehicle id="EW_353" type="typeStraight" route="EW" depart="113" />
    <vehicle id="NE_354" type="typeTurn" route="NE" depart="113" />
    <vehicle id="WE_355" type="typeStraight" route="WE" depart="114" />
    <vehicle id="SN_356" type="typeStraight" route="SN" depart="114" />
    <vehicle id="EW_357" type="typeStraight" route="EW" depart="116" />
    <vehicle id="NS_358" type="typeStraight" route="NS" depart="116" />
    <vehicle id="NE_359" type="typeTurn" route="NE" depart="116" />
    <vehicle id="ES_360" type="typeTurn" route="ES" depart="116" />
    <vehicle id="WE_361" type="typeStraight" route="WE" depart="117" />
    <vehicle id="SN_362" type="typeStraight" route="SN" depart="117" />
    <vehicle id="WE_363" type="typeStraight" route="WE" depart="118" />
    <vehicle id="EW_364" type="typeStraight" route="EW" depart="118" />
    <vehicle id="SN_365" type="typeStraight" route="SN" depart="118" />
    <vehicle id="NS_366" type="typeStraight" route="NS" depart="119" />
    <vehicle id="NE_367" type="typeTurn" route="NE" depart="119" />
    <vehicle id="EW_368" type="typeStraight" route="EW" depart="120" />
    <vehicle id="NE_369" type="typeTurn" route="NE" depart="120" />
    <vehicle id="SW_370" type="typeTurn" route="SW" depart="120" />
    <vehicle id="WE_371" type="typeStraight" route="WE" depart="121" />
    <vehicle id="NS_372" type="typeStraight" route="NS" depart="121" />
    <vehicle id="SN_373" type="typeStraight" route="SN" depart="121" />
    <vehicle id="WE_374" type="typeStraight" route="WE" depart="122" />
    <vehicle id="NS_375" type="typeStraight" route="NS" depart="122" />
    <vehicle id="SN_376" type="typeStraight" route="SN" depart="122" />
    <vehicle id="NE_377" type="typeTurn" route="NE" depart="122" />
    <vehicle id="SW_378" type="typeTurn" route="SW" depart="122" />
    <vehicle id="SN_379" type="typeStraight" route="SN" depart="123" />
    <vehicle id="ES_380" type="typeTurn" route="ES" depart="123" />
    <vehicle id="WN_381" type="typeTurn" route="WN" depart="123" />
    <vehicle id="WE_382" type="typeStraight" route="WE" depart="124" />
    <vehicle id="EW_383" type="typeStraight" route="EW" depart="124" />
    <vehicle id="SN_384" type="typeStraight" route="SN" depart="124" />
    <vehicle id="WE_385" type="typeStraight" route="WE" depart="125" />
    <vehicle id="NS_386" type="typeStraight" route="NS" depart="125" />
    <vehicle id="SW_387" type="typeTurn" route="SW" depart="125" />
    <vehicle id="WN_388" type="typeTurn" route="WN" depart="125" />
    <vehicle id="EW_389" type="typeStraight" route="EW" depart="126" />
    <vehicle id="ES_390" type="typeTurn" route="ES" depart="126" />
    <vehicle id="WE_391" type="typeStraight" route="WE" depart="127" />
    <vehicle id="EW_392" type="typeStraight" route="EW" depart="127" />
    <vehicle id="NS_393" type="typeStraight" route="NS" depart="127" />
    <vehicle id="WE_394" type="typeStraight" route="WE" depart="128" />
    <vehicle id="NS_395" type="typeStraight" route="NS" depart="128" />
    <vehicle id="NE_396" type="typeTurn" route="NE" depart="128" />
    <vehicle id="ES_397" type="typeTurn" route="ES" depart="128" />
    <vehicle id="WN_398" type="typeTurn" route="WN" depart="128" />
    <vehicle id="EW_399" type="typeStraight" route="EW" depart="129" />
    <vehicle id="NS_400" type="typeStraight" route="NS" depart="129" />
    <vehicle id="SW_401" type="typeTurn" route="SW" depart="129" />
    <vehicle id="WN_402" type="typeTurn" route="WN" depart="129" />
    <vehicle id="EW_403" type="typeStraight" route="EW" depart="130" />
    <vehicle id="SN_404" type="typeStraight" route="SN" depart="130" />
    <vehicle id="SW_405" type="typeTurn" route="SW" depart="130" />
    <vehicle id="EW_406" type="typeStraight" route="EW" depart="131" />
    <vehicle id="WN_407" type="typeTurn" route="WN" depart="131" />
    <vehicle id="WE_408" type="typeStraight" route="WE" depart="132" />
    <vehicle id="EW_409" type="typeStraight" route="EW" depart="132" />
    <vehicle id="SN_410" type="typeStraight" route="SN" depart="132" />
    <vehicle id="ES_411" type="typeTurn" route="ES" depart="132" />
    <vehicle id="SW_412" type="typeTurn" route="SW" depart="132" />
    <vehicle id="WE_413" type="typeStraight" route="WE" depart="133" />
    <vehicle id="EW_414" type="typeStraight" route="EW" depart="133" />
    <vehicle id="SN_415" type="typeStraight" route="SN" depart="133" />
    <vehicle id="EW_416" type="typeStraight" route="EW" depart="134" />
    <vehicle id="WE_417" type="typeStraight" route="WE" depart="135" />
    <vehicle id="EW_418" type="typeStraight" route="EW" depart="135" />
    <vehicle id="NS_419" type="typeStraight" route="NS" depart="135" />