<?xml version="1.0" encoding="UTF-8"?>

<configuration xmlns:xsi="http://www.w3.org/2001/XMLSchema-instance" xsi:noNamespaceSchemaLocation="http://sumo.dlr.de/xsd/sumoConfiguration.xsd">

    <input>
        <net-file value="/home/hjj/exp_test_v2/sumo_data/single_cross.net.xml"/>
        <route-files value="/home/hjj/exp_test_v2/sumo_data/routfile/real.rou.xml"/>
        <additional-files value="/home/hjj/exp_test_v2/sumo_data/single_cross.add.xml"/>
    </input>

    <time>
        <begin value="0"/>
    </time>

    <report>
        <verbose value="true"/>
        <no-step-log value="true"/>
        <duration-log.statistics value="true"/>
    </report>

</configuration>
