<routes>
        <vType id="typeStraight" accel="1" decel="4.5" sigma="0.5" length="5" minGap="2.5" maxSpeed="13.9" guiShape="passenger"/>
        <vType id="typeTurn" accel="1" decel="4.5" sigma="0.5" length="5" minGap="2.5" maxSpeed="13.9" guiShape="passenger"/>

        <route id="WE" edges="1i 2o" />
        <route id="EW" edges="2i 1o " />
        <route id="NS" edges="4i 3o " />
        <route id="SN" edges="3i 4o " />
        <route id="NE" edges="4i 2o" />
        <route id="ES" edges="2i 3o " />
        <route id="SW" edges="3i 1o " />
        <route id="WN" edges="1i 4o " />
    <vehicle id="WE_0" type="typeStraight" route="WE" depart="1" />
    <vehicle id="SW_1" type="typeTurn" route="SW" depart="2" />
    <vehicle id="WE_2" type="typeStraight" route="WE" depart="12" />
    <vehicle id="WE_3" type="typeStraight" route="WE" depart="15" />
    <vehicle id="EW_4" type="typeStraight" route="EW" depart="15" />
    <vehicle id="WN_5" type="typeTurn" route="WN" depart="33" />
    <vehicle id="SN_6" type="typeStraight" route="SN" depart="36" />
    <vehicle id="NE_7" type="typeTurn" route="NE" depart="37" />
    <vehicle id="WE_8" type="typeStraight" route="WE" depart="40" />
    <vehicle id="EW_9" type="typeStraight" route="EW" depart="42" />
    <vehicle id="NS_10" type="typeStraight" route="NS" depart="46" />
    <vehicle id="SN_11" type="typeStraight" route="SN" depart="49" />
    <vehicle id="ES_12" type="typeTurn" route="ES" depart="51" />
    <vehicle id="SW_13" type="typeTurn" route="SW" depart="53" />
    <vehicle id="NE_14" type="typeTurn" route="NE" depart="60" />
    <vehicle id="WN_15" type="typeTurn" route="WN" depart="61" />
    <vehicle id="WN_16" type="typeTurn" route="WN" depart="62" />
    <vehicle id="EW_17" type="typeStraight" route="EW" depart="64" />
    <vehicle id="NS_18" type="typeStraight" route="NS" depart="66" />
    <vehicle id="ES_19" type="typeTurn" route="ES" depart="67" />
    <vehicle id="WN_20" type="typeTurn" route="WN" depart="73" />
    <vehicle id="EW_21" type="typeStraight" route="EW" depart="74" />
    <vehicle id="WN_22" type="typeTurn" route="WN" depart="79" />
    <vehicle id="WE_23" type="typeStraight" route="WE" depart="85" />
    <vehicle id="WE_24" type="typeStraight" route="WE" depart="89" />
    <vehicle id="SN_25" type="typeStraight" route="SN" depart="110" />
    <vehicle id="WE_26" type="typeStraight" route="WE" depart="113" />
    <vehicle id="WE_27" type="typeStraight" route="WE" depart="119" />
    <vehicle id="EW_28" type="typeStraight" route="EW" depart="120" />
    <vehicle id="WN_29" type="typeTurn" route="WN" depart="126" />
    <vehicle id="SN_30" type="typeStraight" route="SN" depart="128" />
    <vehicle id="SN_31" type="typeStraight" route="SN" depart="129" />
    <vehicle id="WN_32" type="typeTurn" route="WN" depart="140" />
    <vehicle id="WN_33" type="typeTurn" route="WN" depart="141" />
    <vehicle id="WN_34" type="typeTurn" route="WN" depart="145" />
    <vehicle id="NS_35" type="typeStraight" route="NS" depart="146" />
    <vehicle id="EW_36" type="typeStraight" route="EW" depart="146" />
    <vehicle id="NE_37" type="typeTurn" route="NE" depart="148" />
    <vehicle id="NE_38" type="typeTurn" route="NE" depart="149" />
    <vehicle id="WN_39" type="typeTurn" route="WN" depart="171" />
    <vehicle id="ES_40" type="typeTurn" route="ES" depart="173" />
    <vehicle id="NS_41" type="typeStraight" route="NS" depart="176" />
    <vehicle id="WN_42" type="typeTurn" route="WN" depart="178" />
    <vehicle id="WN_43" type="typeTurn" route="WN" depart="179" />
    <vehicle id="WE_44" type="typeStraight" route="WE" depart="181" />
    <vehicle id="WE_45" type="typeStraight" route="WE" depart="194" />
    <vehicle id="NE_46" type="typeTurn" route="NE" depart="207" />
    <vehicle id="ES_47" type="typeTurn" route="ES" depart="211" />
    <vehicle id="ES_48" type="typeTurn" route="ES" depart="216" />
    <vehicle id="SN_49" type="typeStraight" route="SN" depart="217" />
    <vehicle id="ES_50" type="typeTurn" route="ES" depart="225" />
    <vehicle id="WE_51" type="typeStraight" route="WE" depart="229" />
    <vehicle id="SN_52" type="typeStraight" route="SN" depart="234" />
    <vehicle id="WE_53" type="typeStraight" route="WE" depart="241" />
    <vehicle id="NE_54" type="typeTurn" route="NE" depart="245" />
    <vehicle id="SN_55" type="typeStraight" route="SN" depart="245" />
    <vehicle id="SN_56" type="typeStraight" route="SN" depart="247" />
    <vehicle id="WN_57" type="typeTurn" route="WN" depart="247" />
    <vehicle id="SN_58" type="typeStraight" route="SN" depart="256" />
    <vehicle id="ES_59" type="typeTurn" route="ES" depart="262" />
    <vehicle id="NS_60" type="typeStraight" route="NS" depart="264" />
    <vehicle id="NS_61" type="typeStraight" route="NS" depart="265" />
    <vehicle id="SN_62" type="typeStraight" route="SN" depart="265" />
    <vehicle id="EW_63" type="typeStraight" route="EW" depart="265" />
    <vehicle id="NE_64" type="typeTurn" route="NE" depart="269" />
    <vehicle id="ES_65" type="typeTurn" route="ES" depart="270" />
    <vehicle id="WE_66" type="typeStraight" route="WE" depart="271" />
    <vehicle id="WN_67" type="typeTurn" route="WN" depart="277" />
    <vehicle id="EW_68" type="typeStraight" route="EW" depart="278" />
    <vehicle id="SN_69" type="typeStraight" route="SN" depart="291" />
    <vehicle id="EW_70" type="typeStraight" route="EW" depart="292" />
    <vehicle id="ES_71" type="typeTurn" route="ES" depart="296" />
    <vehicle id="SN_72" type="typeStraight" route="SN" depart="303" />
    <vehicle id="WN_73" type="typeTurn" route="WN" depart="304" />
    <vehicle id="WN_74" type="typeTurn" route="WN" depart="306" />
    <vehicle id="WE_75" type="typeStraight" route="WE" depart="314" />
    <vehicle id="ES_76" type="typeTurn" route="ES" depart="317" />
    <vehicle id="SW_77" type="typeTurn" route="SW" depart="320" />
    <vehicle id="NS_78" type="typeStraight" route="NS" depart="321" />
    <vehicle id="SW_79" type="typeTurn" route="SW" depart="323" />
    <vehicle id="WN_80" type="typeTurn" route="WN" depart="329" />
    <vehicle id="ES_81" type="typeTurn" route="ES" depart="335" />
    <vehicle id="ES_82" type="typeTurn" route="ES" depart="341" />
    <vehicle id="WE_83" type="typeStraight" route="WE" depart="343" />
    <vehicle id="SW_84" type="typeTurn" route="SW" depart="344" />
    <vehicle id="ES_85" type="typeTurn" route="ES" depart="350" />
    <vehicle id="NE_86" type="typeTurn" route="NE" depart="353" />
    <vehicle id="WE_87" type="typeStraight" route="WE" depart="354" />
    <vehicle id="WE_88" type="typeStraight" route="WE" depart="355" />
    <vehicle id="WN_89" type="typeTurn" route="WN" depart="363" />
    <vehicle id="WE_90" type="typeStraight" route="WE" depart="365" />
    <vehicle id="WE_91" type="typeStraight" route="WE" depart="366" />
    <vehicle id="ES_92" type="typeTurn" route="ES" depart="370" />
    <vehicle id="EW_93" type="typeStraight" route="EW" depart="373" />
    <vehicle id="EW_94" type="typeStraight" route="EW" depart="391" />
    <vehicle id="WN_95" type="typeTurn" route="WN" depart="392" />
    <vehicle id="ES_96" type="typeTurn" route="ES" depart="397" />
    <vehicle id="WE_97" type="typeStraight" route="WE" depart="400" />
    <vehicle id="ES_98" type="typeTurn" route="ES" depart="400" />
    <vehicle id="SW_99" type="typeTurn" route="SW" depart="401" />
    <vehicle id="NE_100" type="typeTurn" route="NE" depart="414" />
    <vehicle id="EW_101" type="typeStraight" route="EW" depart="415" />
    <vehicle id="NE_102" type="typeTurn" route="NE" depart="416" />
    <vehicle id="WN_103" type="typeTurn" route="WN" depart="420" />
    <vehicle id="WN_104" type="typeTurn" route="WN" depart="421" />
    <vehicle id="EW_105" type="typeStraight" route="EW" depart="425" />
    <vehicle id="ES_106" type="typeTurn" route="ES" depart="427" />
    <vehicle id="EW_107" type="typeStraight" route="EW" depart="428" />
    <vehicle id="WN_108" type="typeTurn" route="WN" depart="432" />
    <vehicle id="WN_109" type="typeTurn" route="WN" depart="433" />
    <vehicle id="WN_110" type="typeTurn" route="WN" depart="439" />
    <vehicle id="WE_111" type="typeStraight" route="WE" depart="454" />
    <vehicle id="ES_112" type="typeTurn" route="ES" depart="456" />
    <vehicle id="NS_113" type="typeStraight" route="NS" depart="464" />
    <vehicle id="SW_114" type="typeTurn" route="SW" depart="467" />
    <vehicle id="EW_115" type="typeStraight" route="EW" depart="470" />
    <vehicle id="NE_116" type="typeTurn" route="NE" depart="475" />
    <vehicle id="WE_117" type="typeStraight" route="WE" depart="480" />
    <vehicle id="SW_118" type="typeTurn" route="SW" depart="483" />
    <vehicle id="WN_119" type="typeTurn" route="WN" depart="483" />
    <vehicle id="NE_120" type="typeTurn" route="NE" depart="494" />
    <vehicle id="EW_121" type="typeStraight" route="EW" depart="494" />
    <vehicle id="EW_122" type="typeStraight" route="EW" depart="495" />
    <vehicle id="WN_123" type="typeTurn" route="WN" depart="499" />
    <vehicle id="NE_124" type="typeTurn" route="NE" depart="504" />
    <vehicle id="ES_125" type="typeTurn" route="ES" depart="508" />
    <vehicle id="ES_126" type="typeTurn" route="ES" depart="509" />
    <vehicle id="EW_127" type="typeStraight" route="EW" depart="511" />
    <vehicle id="WN_128" type="typeTurn" route="WN" depart="512" />
    <vehicle id="EW_129" type="typeStraight" route="EW" depart="517" />
    <vehicle id="NS_130" type="typeStraight" route="NS" depart="519" />
    <vehicle id="ES_131" type="typeTurn" route="ES" depart="522" />
    <vehicle id="NS_132" type="typeStraight" route="NS" depart="526" />
    <vehicle id="WE_133" type="typeStraight" route="WE" depart="532" />
    <vehicle id="SW_134" type="typeTurn" route="SW" depart="537" />
    <vehicle id="EW_135" type="typeStraight" route="EW" depart="538" />
    <vehicle id="WE_136" type="typeStraight" route="WE" depart="540" />
    <vehicle id="EW_137" type="typeStraight" route="EW" depart="543" />
    <vehicle id="SW_138" type="typeTurn" route="SW" depart="544" />
    <vehicle id="ES_139" type="typeTurn" route="ES" depart="544" />
    <vehicle id="SW_140" type="typeTurn" route="SW" depart="545" />
    <vehicle id="ES_141" type="typeTurn" route="ES" depart="548" />
    <vehicle id="SW_142" type="typeTurn" route="SW" depart="556" />
    <vehicle id="WE_143" type="typeStraight" route="WE" depart="556" />
    <vehicle id="NE_144" type="typeTurn" route="NE" depart="562" />
    <vehicle id="WN_145" type="typeTurn" route="WN" depart="562" />
    <vehicle id="NE_146" type="typeTurn" route="NE" depart="575" />
    <vehicle id="SN_147" type="typeStraight" route="SN" depart="580" />
    <vehicle id="EW_148" type="typeStraight" route="EW" depart="580" />
    <vehicle id="ES_149" type="typeTurn" route="ES" depart="582" />
    <vehicle id="ES_150" type="typeTurn" route="ES" depart="585" />
    <vehicle id="EW_151" type="typeStraight" route="EW" depart="586" />
    <vehicle id="SN_152" type="typeStraight" route="SN" depart="588" />
    <vehicle id="EW_153" type="typeStraight" route="EW" depart="588" />
    <vehicle id="NS_154" type="typeStraight" route="NS" depart="590" />
    <vehicle id="SN_155" type="typeStraight" route="SN" depart="591" />
    <vehicle id="NS_156" type="typeStraight" route="NS" depart="592" />
    <vehicle id="EW_157" type="typeStraight" route="EW" depart="593" />
    <vehicle id="ES_158" type="typeTurn" route="ES" depart="595" />
    <vehicle id="WE_159" type="typeStraight" route="WE" depart="604" />
    <vehicle id="EW_160" type="typeStraight" route="EW" depart="604" />
    <vehicle id="WN_161" type="typeTurn" route="WN" depart="606" />
    <vehicle id="NE_162" type="typeTurn" route="NE" depart="617" />
    <vehicle id="EW_163" type="typeStraight" route="EW" depart="618" />
    <vehicle id="ES_164" type="typeTurn" route="ES" depart="619" />
    <vehicle id="NE_165" type="typeTurn" route="NE" depart="626" />
    <vehicle id="SN_166" type="typeStraight" route="SN" depart="626" />
    <vehicle id="WE_167" type="typeStraight" route="WE" depart="627" />
    <vehicle id="SW_168" type="typeTurn" route="SW" depart="628" />
    <vehicle id="WE_169" type="typeStraight" route="WE" depart="632" />
    <vehicle id="ES_170" type="typeTurn" route="ES" depart="633" />
    <vehicle id="WE_171" type="typeStraight" route="WE" depart="635" />
    <vehicle id="EW_172" type="typeStraight" route="EW" depart="637" />
    <vehicle id="WE_173" type="typeStraight" route="WE" depart="638" />
    <vehicle id="SW_174" type="typeTurn" route="SW" depart="640" />
    <vehicle id="WE_175" type="typeStraight" route="WE" depart="653" />
    <vehicle id="WN_176" type="typeTurn" route="WN" depart="655" />
    <vehicle id="WE_177" type="typeStraight" route="WE" depart="659" />
    <vehicle id="ES_178" type="typeTurn" route="ES" depart="666" />
    <vehicle id="SW_179" type="typeTurn" route="SW" depart="669" />
    <vehicle id="SW_180" type="typeTurn" route="SW" depart="674" />
    <vehicle id="NS_181" type="typeStraight" route="NS" depart="678" />
    <vehicle id="ES_182" type="typeTurn" route="ES" depart="678" />
    <vehicle id="WE_183" type="typeStraight" route="WE" depart="687" />
    <vehicle id="ES_184" type="typeTurn" route="ES" depart="689" />
    <vehicle id="WN_185" type="typeTurn" route="WN" depart="692" />
    <vehicle id="ES_186" type="typeTurn" route="ES" depart="694" />
    <vehicle id="NS_187" type="typeStraight" route="NS" depart="700" />
    <vehicle id="SN_188" type="typeStraight" route="SN" depart="700" />
    <vehicle id="NS_189" type="typeStraight" route="NS" depart="703" />
    <vehicle id="SW_190" type="typeTurn" route="SW" depart="714" />
    <vehicle id="WN_191" type="typeTurn" route="WN" depart="714" />
    <vehicle id="NS_192" type="typeStraight" route="NS" depart="716" />
    <vehicle id="WE_193" type="typeStraight" route="WE" depart="717" />
    <vehicle id="ES_194" type="typeTurn" route="ES" depart="730" />
    <vehicle id="WE_195" type="typeStraight" route="WE" depart="732" />
    <vehicle id="ES_196" type="typeTurn" route="ES" depart="734" />
    <vehicle id="WN_197" type="typeTurn" route="WN" depart="738" />
    <vehicle id="EW_198" type="typeStraight" route="EW" depart="745" />
    <vehicle id="ES_199" type="typeTurn" route="ES" depart="745" />
    <vehicle id="WN_200" type="typeTurn" route="WN" depart="752" />
    <vehicle id="WE_201" type="typeStraight" route="WE" depart="756" />
    <vehicle id="EW_202" type="typeStraight" route="EW" depart="761" />
    <vehicle id="ES_203" type="typeTurn" route="ES" depart="774" />
    <vehicle id="EW_204" type="typeStraight" route="EW" depart="775" />
    <vehicle id="EW_205" type="typeStraight" route="EW" depart="778" />
    <vehicle id="ES_206" type="typeTurn" route="ES" depart="778" />
    <vehicle id="SN_207" type="typeStraight" route="SN" depart="781" />
    <vehicle id="ES_208" type="typeTurn" route="ES" depart="784" />
    <vehicle id="NS_209" type="typeStraight" route="NS" depart="788" />
    <vehicle id="SN_210" type="typeStraight" route="SN" depart="794" />
    <vehicle id="SW_211" type="typeTurn" route="SW" depart="800" />
    <vehicle id="WN_212" type="typeTurn" route="WN" depart="806" />
    <vehicle id="NE_213" type="typeTurn" route="NE" depart="816" />
    <vehicle id="WE_214" type="typeStraight" route="WE" depart="818" />
    <vehicle id="EW_215" type="typeStraight" route="EW" depart="820" />
    <vehicle id="WN_216" type="typeTurn" route="WN" depart="823" />
    <vehicle id="WE_217" type="typeStraight" route="WE" depart="827" />
    <vehicle id="SN_218" type="typeStraight" route="SN" depart="829" />
    <vehicle id="WE_219" type="typeStraight" route="WE" depart="830" />
    <vehicle id="WN_220" type="typeTurn" route="WN" depart="837" />
    <vehicle id="ES_221" type="typeTurn" route="ES" depart="837" />
    <vehicle id="ES_222" type="typeTurn" route="ES" depart="841" />
    <vehicle id="NS_223" type="typeStraight" route="NS" depart="844" />
    <vehicle id="SN_224" type="typeStraight" route="SN" depart="844" />
    <vehicle id="ES_225" type="typeTurn" route="ES" depart="845" />
    <vehicle id="SW_226" type="typeTurn" route="SW" depart="847" />
    <vehicle id="ES_227" type="typeTurn" route="ES" depart="850" />
    <vehicle id="NE_228" type="typeTurn" route="NE" depart="855" />
    <vehicle id="ES_229" type="typeTurn" route="ES" depart="855" />
    <vehicle id="SN_230" type="typeStraight" route="SN" depart="864" />
    <vehicle id="SN_231" type="typeStraight" route="SN" depart="867" />
    <vehicle id="EW_232" type="typeStraight" route="EW" depart="870" />
    <vehicle id="NS_233" type="typeStraight" route="NS" depart="888" />
    <vehicle id="SW_234" type="typeTurn" route="SW" depart="889" />
    <vehicle id="WE_235" type="typeStraight" route="WE" depart="891" />
    <vehicle id="EW_236" type="typeStraight" route="EW" depart="896" />
    <vehicle id="SW_237" type="typeTurn" route="SW" depart="897" />
    <vehicle id="WN_238" type="typeTurn" route="WN" depart="898" />
    <vehicle id="WE_239" type="typeStraight" route="WE" depart="901" />
    <vehicle id="ES_240" type="typeTurn" route="ES" depart="901" />
    <vehicle id="EW_241" type="typeStraight" route="EW" depart="904" />
    <vehicle id="SW_242" type="typeTurn" route="SW" depart="905" />
    <vehicle id="EW_243" type="typeStraight" route="EW" depart="912" />
    <vehicle id="SW_244" type="typeTurn" route="SW" depart="919" />
    <vehicle id="ES_245" type="typeTurn" route="ES" depart="923" />
    <vehicle id="SN_246" type="typeStraight" route="SN" depart="927" />
    <vehicle id="EW_247" type="typeStraight" route="EW" depart="929" />
    <vehicle id="ES_248" type="typeTurn" route="ES" depart="929" />
    <vehicle id="ES_249" type="typeTurn" route="ES" depart="930" />
    <vehicle id="SN_250" type="typeStraight" route="SN" depart="931" />
    <vehicle id="ES_251" type="typeTurn" route="ES" depart="942" />
    <vehicle id="WN_252" type="typeTurn" route="WN" depart="944" />
    <vehicle id="EW_253" type="typeStraight" route="EW" depart="948" />
    <vehicle id="NS_254" type="typeStraight" route="NS" depart="950" />
    <vehicle id="EW_255" type="typeStraight" route="EW" depart="952" />
    <vehicle id="ES_256" type="typeTurn" route="ES" depart="956" />
    <vehicle id="NS_257" type="typeStraight" route="NS" depart="964" />
    <vehicle id="EW_258" type="typeStraight" route="EW" depart="965" />
    <vehicle id="WN_259" type="typeTurn" route="WN" depart="968" />
    <vehicle id="EW_260" type="typeStraight" route="EW" depart="978" />
    <vehicle id="SW_261" type="typeTurn" route="SW" depart="980" />
    <vehicle id="NE_262" type="typeTurn" route="NE" depart="982" />
    <vehicle id="SW_263" type="typeTurn" route="SW" depart="986" />
    <vehicle id="WN_264" type="typeTurn" route="WN" depart="988" />
    <vehicle id="ES_265" type="typeTurn" route="ES" depart="993" />
    <vehicle id="EW_266" type="typeStraight" route="EW" depart="997" />
    <vehicle id="NE_267" type="typeTurn" route="NE" depart="1002" />
    <vehicle id="EW_268" type="typeStraight" route="EW" depart="1002" />
    <vehicle id="WE_269" type="typeStraight" route="WE" depart="1007" />
    <vehicle id="EW_270" type="typeStraight" route="EW" depart="1007" />
    <vehicle id="WE_271" type="typeStraight" route="WE" depart="1017" />
    <vehicle id="SW_272" type="typeTurn" route="SW" depart="1027" />
    <vehicle id="ES_273" type="typeTurn" route="ES" depart="1029" />
    <vehicle id="WE_274" type="typeStraight" route="WE" depart="1032" />
    <vehicle id="WN_275" type="typeTurn" route="WN" depart="1034" />
    <vehicle id="WN_276" type="typeTurn" route="WN" depart="1037" />
    <vehicle id="WE_277" type="typeStraight" route="WE" depart="1038" />
    <vehicle id="WN_278" type="typeTurn" route="WN" depart="1044" />
    <vehicle id="SN_279" type="typeStraight" route="SN" depart="1046" />
    <vehicle id="EW_280" type="typeStraight" route="EW" depart="1049" />
    <vehicle id="ES_281" type="typeTurn" route="ES" depart="1060" />
    <vehicle id="ES_282" type="typeTurn" route="ES" depart="1061" />
    <vehicle id="WE_283" type="typeStraight" route="WE" depart="1065" />
    <vehicle id="SN_284" type="typeStraight" route="SN" depart="1068" />
    <vehicle id="WN_285" type="typeTurn" route="WN" depart="1076" />
    <vehicle id="SN_286" type="typeStraight" route="SN" depart="1082" />
    <vehicle id="EW_287" type="typeStraight" route="EW" depart="1082" />
    <vehicle id="WN_288" type="typeTurn" route="WN" depart="1086" />
    <vehicle id="ES_289" type="typeTurn" route="ES" depart="1087" />
    <vehicle id="ES_290" type="typeTurn" route="ES" depart="1093" />
    <vehicle id="ES_291" type="typeTurn" route="ES" depart="1095" />
    <vehicle id="NS_292" type="typeStraight" route="NS" depart="1097" />
    <vehicle id="NE_293" type="typeTurn" route="NE" depart="1100" />
    <vehicle id="EW_294" type="typeStraight" route="EW" depart="1104" />
    <vehicle id="WN_295" type="typeTurn" route="WN" depart="1109" />
    <vehicle id="ES_296" type="typeTurn" route="ES" depart="1109" />
    <vehicle id="WE_297" type="typeStraight" route="WE" depart="1112" />
    <vehicle id="WE_298" type="typeStraight" route="WE" depart="1113" />
    <vehicle id="ES_299" type="typeTurn" route="ES" depart="1115" />
    <vehicle id="SN_300" type="typeStraight" route="SN" depart="1116" />
    <vehicle id="WN_301" type="typeTurn" route="WN" depart="1120" />
    <vehicle id="EW_302" type="typeStraight" route="EW" depart="1121" />
    <vehicle id="WE_303" type="typeStraight" route="WE" depart="1122" />
    <vehicle id="ES_304" type="typeTurn" route="ES" depart="1122" />
    <vehicle id="WN_305" type="typeTurn" route="WN" depart="1134" />
    <vehicle id="ES_306" type="typeTurn" route="ES" depart="1137" />
    <vehicle id="WE_307" type="typeStraight" route="WE" depart="1138" />
    <vehicle id="NE_308" type="typeTurn" route="NE" depart="1143" />
    <vehicle id="WN_309" type="typeTurn" route="WN" depart="1145" />
    <vehicle id="EW_310" type="typeStraight" route="EW" depart="1147" />
    <vehicle id="NS_311" type="typeStraight" route="NS" depart="1148" />
    <vehicle id="EW_312" type="typeStraight" route="EW" depart="1152" />
    <vehicle id="WN_313" type="typeTurn" route="WN" depart="1154" />
    <vehicle id="NE_314" type="typeTurn" route="NE" depart="1156" />
    <vehicle id="ES_315" type="typeTurn" route="ES" depart="1160" />
    <vehicle id="SW_316" type="typeTurn" route="SW" depart="1165" />
    <vehicle id="WN_317" type="typeTurn" route="WN" depart="1166" />
    <vehicle id="WE_318" type="typeStraight" route="WE" depart="1168" />
    <vehicle id="SW_319" type="typeTurn" route="SW" depart="1176" />
    <vehicle id="ES_320" type="typeTurn" route="ES" depart="1183" />
    <vehicle id="NE_321" type="typeTurn" route="NE" depart="1184" />
    <vehicle id="WE_322" type="typeStraight" route="WE" depart="1190" />
    <vehicle id="WN_323" type="typeTurn" route="WN" depart="1194" />
    <vehicle id="EW_324" type="typeStraight" route="EW" depart="1201" />
    <vehicle id="WE_325" type="typeStraight" route="WE" depart="1205" />
    <vehicle id="ES_326" type="typeTurn" route="ES" depart="1206" />
    <vehicle id="ES_327" type="typeTurn" route="ES" depart="1212" />
    <vehicle id="ES_328" type="typeTurn" route="ES" depart="1213" />
    <vehicle id="NE_329" type="typeTurn" route="NE" depart="1222" />
    <vehicle id="WN_330" type="typeTurn" route="WN" depart="1225" />
    <vehicle id="NE_331" type="typeTurn" route="NE" depart="1226" />
    <vehicle id="ES_332" type="typeTurn" route="ES" depart="1230" />
    <vehicle id="SN_333" type="typeStraight" route="SN" depart="1231" />
    <vehicle id="ES_334" type="typeTurn" route="ES" depart="1231" />
    <vehicle id="EW_335" type="typeStraight" route="EW" depart="1236" />
    <vehicle id="WE_336" type="typeStraight" route="WE" depart="1250" />
    <vehicle id="WN_337" type="typeTurn" route="WN" depart="1251" />
    <vehicle id="EW_338" type="typeStraight" route="EW" depart="1251" />
    <vehicle id="WN_339" type="typeTurn" route="WN" depart="1252" />
    <vehicle id="SW_340" type="typeTurn" route="SW" depart="1256" />
    <vehicle id="EW_341" type="typeStraight" route="EW" depart="1262" />
    <vehicle id="EW_342" type="typeStraight" route="EW" depart="1268" />
    <vehicle id="EW_343" type="typeStraight" route="EW" depart="1273" />
    <vehicle id="WE_344" type="typeStraight" route="WE" depart="1274" />
    <vehicle id="WE_345" type="typeStraight" route="WE" depart="1278" />
    <vehicle id="ES_346" type="typeTurn" route="ES" depart="1278" />
    <vehicle id="WE_347" type="typeStraight" route="WE" depart="1287" />
    <vehicle id="WN_348" type="typeTurn" route="WN" depart="1290" />
    <vehicle id="WN_349" type="typeTurn" route="WN" depart="1298" />
    <vehicle id="ES_350" type="typeTurn" route="ES" depart="1298" />
    <vehicle id="WN_351" type="typeTurn" route="WN" depart="1303" />
    <vehicle id="ES_352" type="typeTurn" route="ES" depart="1303" />
    <vehicle id="EW_353" type="typeStraight" route="EW" depart="1305" />
    <vehicle id="NE_354" type="typeTurn" route="NE" depart="1314" />
    <vehicle id="ES_355" type="typeTurn" route="ES" depart="1316" />
    <vehicle id="NS_356" type="typeStraight" route="NS" depart="1317" />
    <vehicle id="EW_357" type="typeStraight" route="EW" depart="1319" />
    <vehicle id="NE_358" type="typeTurn" route="NE" depart="1321" />
    <vehicle id="ES_359" type="typeTurn" route="ES" depart="1322" />
    <vehicle id="SN_360" type="typeStraight" route="SN" depart="1327" />
    <vehicle id="NS_361" type="typeStraight" route="NS" depart="1334" />
    <vehicle id="ES_362" type="typeTurn" route="ES" depart="1345" />
    <vehicle id="SN_363" type="typeStraight" route="SN" depart="1346" />
    <vehicle id="WE_364" type="typeStraight" route="WE" depart="1347" />
    <vehicle id="WE_365" type="typeStraight" route="WE" depart="1349" />
    <vehicle id="WE_366" type="typeStraight" route="WE" depart="1351" />
    <vehicle id="WN_367" type="typeTurn" route="WN" depart="1354" />
    <vehicle id="WN_368" type="typeTurn" route="WN" depart="1362" />
    <vehicle id="EW_369" type="typeStraight" route="EW" depart="1363" />
    <vehicle id="SN_370" type="typeStraight" route="SN" depart="1364" />
    <vehicle id="SW_371" type="typeTurn" route="SW" depart="1365" />
    <vehicle id="SN_372" type="typeStraight" route="SN" depart="1370" />
    <vehicle id="EW_373" type="typeStraight" route="EW" depart="1378" />
    <vehicle id="ES_374" type="typeTurn" route="ES" depart="1382" />
    <vehicle id="WN_375" type="typeTurn" route="WN" depart="1384" />
    <vehicle id="ES_376" type="typeTurn" route="ES" depart="1388" />
    <vehicle id="SW_377" type="typeTurn" route="SW" depart="1392" />
    <vehicle id="SW_378" type="typeTurn" route="SW" depart="1393" />
    <vehicle id="EW_379" type="typeStraight" route="EW" depart="1394" />
    <vehicle id="WE_380" type="typeStraight" route="WE" depart="1397" />
    <vehicle id="SN_381" type="typeStraight" route="SN" depart="1398" />
    <vehicle id="EW_382" type="typeStraight" route="EW" depart="1409" />
    <vehicle id="ES_383" type="typeTurn" route="ES" depart="1409" />
    <vehicle id="WE_384" type="typeStraight" route="WE" depart="1411" />
    <vehicle id="WE_385" type="typeStraight" route="WE" depart="1418" />
    <vehicle id="SN_386" type="typeStraight" route="SN" depart="1421" />
    <vehicle id="WE_387" type="typeStraight" route="WE" depart="1430" />
    <vehicle id="WE_388" type="typeStraight" route="WE" depart="1439" />
    <vehicle id="ES_389" type="typeTurn" route="ES" depart="1445" />
    <vehicle id="NE_390" type="typeTurn" route="NE" depart="1448" />
    <vehicle id="EW_391" type="typeStraight" route="EW" depart="1448" />
    <vehicle id="SN_392" type="typeStraight" route="SN" depart="1449" />
    <vehicle id="WE_393" type="typeStraight" route="WE" depart="1449" />
    <vehicle id="WN_394" type="typeTurn" route="WN" depart="1453" />
    <vehicle id="ES_395" type="typeTurn" route="ES" depart="1453" />
    <vehicle id="NE_396" type="typeTurn" route="NE" depart="1454" />
    <vehicle id="SW_397" type="typeTurn" route="SW" depart="1462" />
    <vehicle id="EW_398" type="typeStraight" route="EW" depart="1468" />
    <vehicle id="EW_399" type="typeStraight" route="EW" depart="1469" />
    <vehicle id="EW_400" type="typeStraight" route="EW" depart="1475" />
    <vehicle id="WN_401" type="typeTurn" route="WN" depart="1476" />
    <vehicle id="NS_402" type="typeStraight" route="NS" depart="1483" />
    <vehicle id="NE_403" type="typeTurn" route="NE" depart="1487" />
    <vehicle id="NS_404" type="typeStraight" route="NS" depart="1491" />
    <vehicle id="EW_405" type="typeStraight" route="EW" depart="1501" />
    <vehicle id="NS_406" type="typeStraight" route="NS" depart="1502" />
    <vehicle id="WN_407" type="typeTurn" route="WN" depart="1503" />
    <vehicle id="WE_408" type="typeStraight" route="WE" depart="1511" />
    <vehicle id="ES_409" type="typeTurn" route="ES" depart="1512" />
    <vehicle id="NE_410" type="typeTurn" route="NE" depart="1513" />
    <vehicle id="ES_411" type="typeTurn" route="ES" depart="1522" />
    <vehicle id="ES_412" type="typeTurn" route="ES" depart="1527" />
    <vehicle id="ES_413" type="typeTurn" route="ES" depart="1528" />
    <vehicle id="WN_414" type="typeTurn" route="WN" depart="1531" />
    <vehicle id="EW_415" type="typeStraight" route="EW" depart="1531" />
    <vehicle id="SN_416" type="typeStraight" route="SN" depart="1538" />
    <vehicle id="WE_417" type="typeStraight" route="WE" depart="1539" />
    <vehicle id="WN_418" type="typeTurn" route="WN" depart="1540" />
    <vehicle id="SN_419" type="typeStraight" route="SN" depart="1543" />