<routes>
        <vType id="typeStraight" accel="1" decel="4.5" sigma="0.5" length="5" minGap="2.5" maxSpeed="13.9" guiShape="passenger"/>
        <vType id="typeTurn" accel="1" decel="4.5" sigma="0.5" length="5" minGap="2.5" maxSpeed="13.9" guiShape="passenger"/>

        <route id="WE" edges="1i 2o" />
        <route id="EW" edges="2i 1o " />
        <route id="NS" edges="4i 3o " />
        <route id="SN" edges="3i 4o " />
        <route id="NE" edges="4i 2o" />
        <route id="ES" edges="2i 3o " />
        <route id="SW" edges="3i 1o " />
        <route id="WN" edges="1i 4o " />
    <vehicle id="NE_0" type="typeTurn" route="NE" depart="0" />
    <vehicle id="NE_1" type="typeTurn" route="NE" depart="1" />
    <vehicle id="WE_2" type="typeStraight" route="WE" depart="1" />
    <vehicle id="SW_3" type="typeTurn" route="SW" depart="2" />
    <vehicle id="NE_4" type="typeTurn" route="NE" depart="5" />
    <vehicle id="SW_5" type="typeTurn" route="SW" depart="8" />
    <vehicle id="NE_6" type="typeTurn" route="NE" depart="11" />
    <vehicle id="WE_7" type="typeStraight" route="WE" depart="12" />
    <vehicle id="WE_8" type="typeStraight" route="WE" depart="15" />
    <vehicle id="EW_9" type="typeStraight" route="EW" depart="15" />
    <vehicle id="SW_10" type="typeTurn" route="SW" depart="16" />
    <vehicle id="NS_11" type="typeStraight" route="NS" depart="17" />
    <vehicle id="NS_12" type="typeStraight" route="NS" depart="20" />
    <vehicle id="NS_13" type="typeStraight" route="NS" depart="28" />
    <vehicle id="NS_14" type="typeStraight" route="NS" depart="32" />
    <vehicle id="WN_15" type="typeTurn" route="WN" depart="33" />
    <vehicle id="SN_16" type="typeStraight" route="SN" depart="36" />
    <vehicle id="NE_17" type="typeTurn" route="NE" depart="37" />
    <vehicle id="WE_18" type="typeStraight" route="WE" depart="40" />
    <vehicle id="EW_19" type="typeStraight" route="EW" depart="42" />
    <vehicle id="NS_20" type="typeStraight" route="NS" depart="46" />
    <vehicle id="SN_21" type="typeStraight" route="SN" depart="49" />
    <vehicle id="ES_22" type="typeTurn" route="ES" depart="51" />
    <vehicle id="SW_23" type="typeTurn" route="SW" depart="52" />
    <vehicle id="SW_24" type="typeTurn" route="SW" depart="53" />
    <vehicle id="SW_25" type="typeTurn" route="SW" depart="54" />
    <vehicle id="NE_26" type="typeTurn" route="NE" depart="60" />
    <vehicle id="WN_27" type="typeTurn" route="WN" depart="61" />
    <vehicle id="WN_28" type="typeTurn" route="WN" depart="62" />
    <vehicle id="NS_29" type="typeStraight" route="NS" depart="63" />
    <vehicle id="EW_30" type="typeStraight" route="EW" depart="64" />
    <vehicle id="NS_31" type="typeStraight" route="NS" depart="66" />
    <vehicle id="ES_32" type="typeTurn" route="ES" depart="67" />
    <vehicle id="WN_33" type="typeTurn" route="WN" depart="73" />
    <vehicle id="EW_34" type="typeStraight" route="EW" depart="74" />
    <vehicle id="WN_35" type="typeTurn" route="WN" depart="79" />
    <vehicle id="SW_36" type="typeTurn" route="SW" depart="81" />
    <vehicle id="NS_37" type="typeStraight" route="NS" depart="82" />
    <vehicle id="SN_38" type="typeStraight" route="SN" depart="82" />
    <vehicle id="WE_39" type="typeStraight" route="WE" depart="85" />
    <vehicle id="WE_40" type="typeStraight" route="WE" depart="89" />
    <vehicle id="NS_41" type="typeStraight" route="NS" depart="91" />
    <vehicle id="NE_42" type="typeTurn" route="NE" depart="102" />
    <vehicle id="SN_43" type="typeStraight" route="SN" depart="103" />
    <vehicle id="SW_44" type="typeTurn" route="SW" depart="106" />
    <vehicle id="NS_45" type="typeStraight" route="NS" depart="108" />
    <vehicle id="SN_46" type="typeStraight" route="SN" depart="110" />
    <vehicle id="WE_47" type="typeStraight" route="WE" depart="113" />
    <vehicle id="WE_48" type="typeStraight" route="WE" depart="119" />
    <vehicle id="EW_49" type="typeStraight" route="EW" depart="120" />
    <vehicle id="SW_50" type="typeTurn" route="SW" depart="121" />
    <vehicle id="SW_51" type="typeTurn" route="SW" depart="124" />
    <vehicle id="WN_52" type="typeTurn" route="WN" depart="126" />
    <vehicle id="SN_53" type="typeStraight" route="SN" depart="127" />
    <vehicle id="SN_54" type="typeStraight" route="SN" depart="128" />
    <vehicle id="NE_55" type="typeTurn" route="NE" depart="129" />
    <vehicle id="SN_56" type="typeStraight" route="SN" depart="129" />
    <vehicle id="NE_57" type="typeTurn" route="NE" depart="131" />
    <vehicle id="NS_58" type="typeStraight" route="NS" depart="133" />
    <vehicle id="SW_59" type="typeTurn" route="SW" depart="136" />
    <vehicle id="WN_60" type="typeTurn" route="WN" depart="140" />
    <vehicle id="WN_61" type="typeTurn" route="WN" depart="141" />
    <vehicle id="SW_62" type="typeTurn" route="SW" depart="142" />
    <vehicle id="WN_63" type="typeTurn" route="WN" depart="145" />
    <vehicle id="NS_64" type="typeStraight" route="NS" depart="146" />
    <vehicle id="EW_65" type="typeStraight" route="EW" depart="146" />
    <vehicle id="NS_66" type="typeStraight" route="NS" depart="148" />
    <vehicle id="NE_67" type="typeTurn" route="NE" depart="148" />
    <vehicle id="NE_68" type="typeTurn" route="NE" depart="149" />
    <vehicle id="NS_69" type="typeStraight" route="NS" depart="155" />
    <vehicle id="NS_70" type="typeStraight" route="NS" depart="160" />
    <vehicle id="SN_71" type="typeStraight" route="SN" depart="165" />
    <vehicle id="WN_72" type="typeTurn" route="WN" depart="171" />
    <vehicle id="SW_73" type="typeTurn" route="SW" depart="172" />
    <vehicle id="ES_74" type="typeTurn" route="ES" depart="173" />
    <vehicle id="NE_75" type="typeTurn" route="NE" depart="175" />
    <vehicle id="NS_76" type="typeStraight" route="NS" depart="176" />
    <vehicle id="SW_77" type="typeTurn" route="SW" depart="177" />
    <vehicle id="WN_78" type="typeTurn" route="WN" depart="178" />
    <vehicle id="WN_79" type="typeTurn" route="WN" depart="179" />
    <vehicle id="SN_80" type="typeStraight" route="SN" depart="181" />
    <vehicle id="WE_81" type="typeStraight" route="WE" depart="181" />
    <vehicle id="NE_82" type="typeTurn" route="NE" depart="186" />
    <vehicle id="NE_83" type="typeTurn" route="NE" depart="188" />
    <vehicle id="SN_84" type="typeStraight" route="SN" depart="188" />
    <vehicle id="WE_85" type="typeStraight" route="WE" depart="194" />
    <vehicle id="NE_86" type="typeTurn" route="NE" depart="196" />
    <vehicle id="NS_87" type="typeStraight" route="NS" depart="201" />
    <vehicle id="NE_88" type="typeTurn" route="NE" depart="201" />
    <vehicle id="NS_89" type="typeStraight" route="NS" depart="203" />
    <vehicle id="NE_90" type="typeTurn" route="NE" depart="203" />
    <vehicle id="NE_91" type="typeTurn" route="NE" depart="207" />
    <vehicle id="ES_92" type="typeTurn" route="ES" depart="211" />
    <vehicle id="NE_93" type="typeTurn" route="NE" depart="215" />
    <vehicle id="ES_94" type="typeTurn" route="ES" depart="216" />
    <vehicle id="SN_95" type="typeStraight" route="SN" depart="217" />
    <vehicle id="SW_96" type="typeTurn" route="SW" depart="218" />
    <vehicle id="SN_97" type="typeStraight" route="SN" depart="225" />
    <vehicle id="ES_98" type="typeTurn" route="ES" depart="225" />
    <vehicle id="WE_99" type="typeStraight" route="WE" depart="229" />
    <vehicle id="SN_100" type="typeStraight" route="SN" depart="234" />
    <vehicle id="WE_101" type="typeStraight" route="WE" depart="241" />
    <vehicle id="NE_102" type="typeTurn" route="NE" depart="242" />
    <vehicle id="SW_103" type="typeTurn" route="SW" depart="242" />
    <vehicle id="NE_104" type="typeTurn" route="NE" depart="245" />
    <vehicle id="SN_105" type="typeStraight" route="SN" depart="245" />
    <vehicle id="SN_106" type="typeStraight" route="SN" depart="247" />
    <vehicle id="WN_107" type="typeTurn" route="WN" depart="247" />
    <vehicle id="NS_108" type="typeStraight" route="NS" depart="248" />
    <vehicle id="SN_109" type="typeStraight" route="SN" depart="256" />
    <vehicle id="ES_110" type="typeTurn" route="ES" depart="262" />
    <vehicle id="NS_111" type="typeStraight" route="NS" depart="264" />
    <vehicle id="NS_112" type="typeStraight" route="NS" depart="265" />
    <vehicle id="SN_113" type="typeStraight" route="SN" depart="265" />
    <vehicle id="EW_114" type="typeStraight" route="EW" depart="265" />
    <vehicle id="NS_115" type="typeStraight" route="NS" depart="269" />
    <vehicle id="NE_116" type="typeTurn" route="NE" depart="269" />
    <vehicle id="SN_117" type="typeStraight" route="SN" depart="270" />
    <vehicle id="ES_118" type="typeTurn" route="ES" depart="270" />
    <vehicle id="NS_119" type="typeStraight" route="NS" depart="271" />
    <vehicle id="WE_120" type="typeStraight" route="WE" depart="271" />
    <vehicle id="NE_121" type="typeTurn" route="NE" depart="274" />
    <vehicle id="NE_122" type="typeTurn" route="NE" depart="275" />
    <vehicle id="WN_123" type="typeTurn" route="WN" depart="277" />
    <vehicle id="EW_124" type="typeStraight" route="EW" depart="278" />
    <vehicle id="NS_125" type="typeStraight" route="NS" depart="281" />
    <vehicle id="NE_126" type="typeTurn" route="NE" depart="288" />
    <vehicle id="SW_127" type="typeTurn" route="SW" depart="290" />
    <vehicle id="SN_128" type="typeStraight" route="SN" depart="291" />
    <vehicle id="EW_129" type="typeStraight" route="EW" depart="292" />
    <vehicle id="ES_130" type="typeTurn" route="ES" depart="296" />
    <vehicle id="NS_131" type="typeStraight" route="NS" depart="298" />
    <vehicle id="NS_132" type="typeStraight" route="NS" depart="303" />
    <vehicle id="SN_133" type="typeStraight" route="SN" depart="303" />
    <vehicle id="WN_134" type="typeTurn" route="WN" depart="304" />
    <vehicle id="WN_135" type="typeTurn" route="WN" depart="306" />
    <vehicle id="WE_136" type="typeStraight" route="WE" depart="314" />
    <vehicle id="SW_137" type="typeTurn" route="SW" depart="315" />
    <vehicle id="NS_138" type="typeStraight" route="NS" depart="317" />
    <vehicle id="ES_139" type="typeTurn" route="ES" depart="317" />
    <vehicle id="SW_140" type="typeTurn" route="SW" depart="320" />
    <vehicle id="NS_141" type="typeStraight" route="NS" depart="321" />
    <vehicle id="SW_142" type="typeTurn" route="SW" depart="323" />
    <vehicle id="SN_143" type="typeStraight" route="SN" depart="327" />
    <vehicle id="WN_144" type="typeTurn" route="WN" depart="329" />
    <vehicle id="NS_145" type="typeStraight" route="NS" depart="330" />
    <vehicle id="NE_146" type="typeTurn" route="NE" depart="330" />
    <vehicle id="NE_147" type="typeTurn" route="NE" depart="333" />
    <vehicle id="ES_148" type="typeTurn" route="ES" depart="335" />
    <vehicle id="SN_149" type="typeStraight" route="SN" depart="336" />
    <vehicle id="NE_150" type="typeTurn" route="NE" depart="338" />
    <vehicle id="NE_151" type="typeTurn" route="NE" depart="341" />
    <vehicle id="ES_152" type="typeTurn" route="ES" depart="341" />
    <vehicle id="WE_153" type="typeStraight" route="WE" depart="343" />
    <vehicle id="SW_154" type="typeTurn" route="SW" depart="344" />
    <vehicle id="SW_155" type="typeTurn" route="SW" depart="345" />
    <vehicle id="NE_156" type="typeTurn" route="NE" depart="347" />
    <vehicle id="ES_157" type="typeTurn" route="ES" depart="350" />
    <vehicle id="NE_158" type="typeTurn" route="NE" depart="352" />
    <vehicle id="NE_159" type="typeTurn" route="NE" depart="353" />
    <vehicle id="WE_160" type="typeStraight" route="WE" depart="354" />
    <vehicle id="WE_161" type="typeStraight" route="WE" depart="355" />
    <vehicle id="SN_162" type="typeStraight" route="SN" depart="356" />
    <vehicle id="NE_163" type="typeTurn" route="NE" depart="357" />
    <vehicle id="NS_164" type="typeStraight" route="NS" depart="362" />
    <vehicle id="WN_165" type="typeTurn" route="WN" depart="363" />
    <vehicle id="WE_166" type="typeStraight" route="WE" depart="365" />
    <vehicle id="WE_167" type="typeStraight" route="WE" depart="366" />
    <vehicle id="ES_168" type="typeTurn" route="ES" depart="370" />
    <vehicle id="SW_169" type="typeTurn" route="SW" depart="373" />
    <vehicle id="EW_170" type="typeStraight" route="EW" depart="373" />
    <vehicle id="NE_171" type="typeTurn" route="NE" depart="376" />
    <vehicle id="SW_172" type="typeTurn" route="SW" depart="377" />
    <vehicle id="NE_173" type="typeTurn" route="NE" depart="379" />
    <vehicle id="SW_174" type="typeTurn" route="SW" depart="380" />
    <vehicle id="NE_175" type="typeTurn" route="NE" depart="391" />
    <vehicle id="EW_176" type="typeStraight" route="EW" depart="391" />
    <vehicle id="WN_177" type="typeTurn" route="WN" depart="392" />
    <vehicle id="SN_178" type="typeStraight" route="SN" depart="396" />
    <vehicle id="ES_179" type="typeTurn" route="ES" depart="397" />
    <vehicle id="WE_180" type="typeStraight" route="WE" depart="400" />
    <vehicle id="ES_181" type="typeTurn" route="ES" depart="400" />
    <vehicle id="SW_182" type="typeTurn" route="SW" depart="401" />
    <vehicle id="SN_183" type="typeStraight" route="SN" depart="404" />
    <vehicle id="NS_184" type="typeStraight" route="NS" depart="407" />
    <vehicle id="SN_185" type="typeStraight" route="SN" depart="412" />
    <vehicle id="NE_186" type="typeTurn" route="NE" depart="414" />
    <vehicle id="EW_187" type="typeStraight" route="EW" depart="415" />
    <vehicle id="NE_188" type="typeTurn" route="NE" depart="416" />
    <vehicle id="WN_189" type="typeTurn" route="WN" depart="420" />
    <vehicle id="NE_190" type="typeTurn" route="NE" depart="421" />
    <vehicle id="WN_191" type="typeTurn" route="WN" depart="421" />
    <vehicle id="NE_192" type="typeTurn" route="NE" depart="425" />
    <vehicle id="EW_193" type="typeStraight" route="EW" depart="425" />
    <vehicle id="ES_194" type="typeTurn" route="ES" depart="427" />
    <vehicle id="EW_195" type="typeStraight" route="EW" depart="428" />
    <vehicle id="SW_196" type="typeTurn" route="SW" depart="431" />
    <vehicle id="WN_197" type="typeTurn" route="WN" depart="432" />
    <vehicle id="WN_198" type="typeTurn" route="WN" depart="433" />
    <vehicle id="SW_199" type="typeTurn" route="SW" depart="436" />
    <vehicle id="NE_200" type="typeTurn" route="NE" depart="437" />
    <vehicle id="WN_201" type="typeTurn" route="WN" depart="439" />
    <vehicle id="NS_202" type="typeStraight" route="NS" depart="443" />
    <vehicle id="NE_203" type="typeTurn" route="NE" depart="446" />
    <vehicle id="NS_204" type="typeStraight" route="NS" depart="453" />
    <vehicle id="WE_205" type="typeStraight" route="WE" depart="454" />
    <vehicle id="ES_206" type="typeTurn" route="ES" depart="456" />
    <vehicle id="NE_207" type="typeTurn" route="NE" depart="462" />
    <vehicle id="NS_208" type="typeStraight" route="NS" depart="464" />
    <vehicle id="SW_209" type="typeTurn" route="SW" depart="466" />
    <vehicle id="SW_210" type="typeTurn" route="SW" depart="467" />
    <vehicle id="EW_211" type="typeStraight" route="EW" depart="470" />
    <vehicle id="NE_212" type="typeTurn" route="NE" depart="475" />
    <vehicle id="NE_213" type="typeTurn" route="NE" depart="478" />
    <vehicle id="WE_214" type="typeStraight" route="WE" depart="480" />
    <vehicle id="SW_215" type="typeTurn" route="SW" depart="483" />
    <vehicle id="WN_216" type="typeTurn" route="WN" depart="483" />
    <vehicle id="NS_217" type="typeStraight" route="NS" depart="488" />
    <vehicle id="SN_218" type="typeStraight" route="SN" depart="488" />
    <vehicle id="NS_219" type="typeStraight" route="NS" depart="489" />
    <vehicle id="NE_220" type="typeTurn" route="NE" depart="494" />
    <vehicle id="SN_221" type="typeStraight" route="SN" depart="494" />
    <vehicle id="EW_222" type="typeStraight" route="EW" depart="494" />
    <vehicle id="NS_223" type="typeStraight" route="NS" depart="495" />
    <vehicle id="EW_224" type="typeStraight" route="EW" depart="495" />
    <vehicle id="WN_225" type="typeTurn" route="WN" depart="499" />
    <vehicle id="SN_226" type="typeStraight" route="SN" depart="501" />
    <vehicle id="NE_227" type="typeTurn" route="NE" depart="504" />
    <vehicle id="ES_228" type="typeTurn" route="ES" depart="508" />
    <vehicle id="ES_229" type="typeTurn" route="ES" depart="509" />
    <vehicle id="EW_230" type="typeStraight" route="EW" depart="511" />
    <vehicle id="SW_231" type="typeTurn" route="SW" depart="512" />
    <vehicle id="WN_232" type="typeTurn" route="WN" depart="512" />
    <vehicle id="EW_233" type="typeStraight" route="EW" depart="517" />
    <vehicle id="NS_234" type="typeStraight" route="NS" depart="518" />
    <vehicle id="NS_235" type="typeStraight" route="NS" depart="519" />
    <vehicle id="ES_236" type="typeTurn" route="ES" depart="522" />
    <vehicle id="NS_237" type="typeStraight" route="NS" depart="526" />
    <vehicle id="SN_238" type="typeStraight" route="SN" depart="531" />
    <vehicle id="WE_239" type="typeStraight" route="WE" depart="532" />
    <vehicle id="SW_240" type="typeTurn" route="SW" depart="537" />
    <vehicle id="SW_241" type="typeTurn" route="SW" depart="538" />
    <vehicle id="EW_242" type="typeStraight" route="EW" depart="538" />
    <vehicle id="WE_243" type="typeStraight" route="WE" depart="540" />
    <vehicle id="EW_244" type="typeStraight" route="EW" depart="543" />
    <vehicle id="SW_245" type="typeTurn" route="SW" depart="544" />
    <vehicle id="ES_246" type="typeTurn" route="ES" depart="544" />
    <vehicle id="SW_247" type="typeTurn" route="SW" depart="545" />
    <vehicle id="ES_248" type="typeTurn" route="ES" depart="548" />
    <vehicle id="NS_249" type="typeStraight" route="NS" depart="549" />
    <vehicle id="SW_250" type="typeTurn" route="SW" depart="551" />
    <vehicle id="NE_251" type="typeTurn" route="NE" depart="553" />
    <vehicle id="SW_252" type="typeTurn" route="SW" depart="554" />
    <vehicle id="SW_253" type="typeTurn" route="SW" depart="556" />
    <vehicle id="WE_254" type="typeStraight" route="WE" depart="556" />
    <vehicle id="NS_255" type="typeStraight" route="NS" depart="558" />
    <vehicle id="NE_256" type="typeTurn" route="NE" depart="562" />
    <vehicle id="WN_257" type="typeTurn" route="WN" depart="562" />
    <vehicle id="SW_258" type="typeTurn" route="SW" depart="567" />
    <vehicle id="SW_259" type="typeTurn" route="SW" depart="568" />
    <vehicle id="NE_260" type="typeTurn" route="NE" depart="575" />
    <vehicle id="NE_261" type="typeTurn" route="NE" depart="576" />
    <vehicle id="NS_262" type="typeStraight" route="NS" depart="579" />
    <vehicle id="SN_263" type="typeStraight" route="SN" depart="580" />
    <vehicle id="EW_264" type="typeStraight" route="EW" depart="580" />
    <vehicle id="SW_265" type="typeTurn" route="SW" depart="581" />
    <vehicle id="ES_266" type="typeTurn" route="ES" depart="582" />
    <vehicle id="ES_267" type="typeTurn" route="ES" depart="585" />
    <vehicle id="EW_268" type="typeStraight" route="EW" depart="586" />
    <vehicle id="SN_269" type="typeStraight" route="SN" depart="588" />
    <vehicle id="EW_270" type="typeStraight" route="EW" depart="588" />
    <vehicle id="NS_271" type="typeStraight" route="NS" depart="590" />
    <vehicle id="SW_272" type="typeTurn" route="SW" depart="590" />
    <vehicle id="NS_273" type="typeStraight" route="NS" depart="591" />
    <vehicle id="SN_274" type="typeStraight" route="SN" depart="591" />
    <vehicle id="NS_275" type="typeStraight" route="NS" depart="592" />
    <vehicle id="EW_276" type="typeStraight" route="EW" depart="593" />
    <vehicle id="ES_277" type="typeTurn" route="ES" depart="595" />
    <vehicle id="WE_278" type="typeStraight" route="WE" depart="604" />
    <vehicle id="EW_279" type="typeStraight" route="EW" depart="604" />
    <vehicle id="WN_280" type="typeTurn" route="WN" depart="606" />
    <vehicle id="SN_281" type="typeStraight" route="SN" depart="608" />
    <vehicle id="SN_282" type="typeStraight" route="SN" depart="609" />
    <vehicle id="SN_283" type="typeStraight" route="SN" depart="610" />
    <vehicle id="NE_284" type="typeTurn" route="NE" depart="617" />
    <vehicle id="EW_285" type="typeStraight" route="EW" depart="618" />
    <vehicle id="NE_286" type="typeTurn" route="NE" depart="619" />
    <vehicle id="ES_287" type="typeTurn" route="ES" depart="619" />
    <vehicle id="NE_288" type="typeTurn" route="NE" depart="626" />
    <vehicle id="SN_289" type="typeStraight" route="SN" depart="626" />
    <vehicle id="WE_290" type="typeStraight" route="WE" depart="627" />
    <vehicle id="SW_291" type="typeTurn" route="SW" depart="628" />
    <vehicle id="NS_292" type="typeStraight" route="NS" depart="629" />
    <vehicle id="WE_293" type="typeStraight" route="WE" depart="632" />
    <vehicle id="ES_294" type="typeTurn" route="ES" depart="633" />
    <vehicle id="WE_295" type="typeStraight" route="WE" depart="635" />
    <vehicle id="EW_296" type="typeStraight" route="EW" depart="637" />
    <vehicle id="WE_297" type="typeStraight" route="WE" depart="638" />
    <vehicle id="SW_298" type="typeTurn" route="SW" depart="640" />
    <vehicle id="NS_299" type="typeStraight" route="NS" depart="647" />
    <vehicle id="NS_300" type="typeStraight" route="NS" depart="652" />
    <vehicle id="WE_301" type="typeStraight" route="WE" depart="653" />
    <vehicle id="WN_302" type="typeTurn" route="WN" depart="655" />
    <vehicle id="SW_303" type="typeTurn" route="SW" depart="659" />
    <vehicle id="WE_304" type="typeStraight" route="WE" depart="659" />
    <vehicle id="ES_305" type="typeTurn" route="ES" depart="666" />
    <vehicle id="SW_306" type="typeTurn" route="SW" depart="669" />
    <vehicle id="SW_307" type="typeTurn" route="SW" depart="674" />
    <vehicle id="NE_308" type="typeTurn" route="NE" depart="675" />
    <vehicle id="NS_309" type="typeStraight" route="NS" depart="678" />
    <vehicle id="ES_310" type="typeTurn" route="ES" depart="678" />
    <vehicle id="SW_311" type="typeTurn" route="SW" depart="682" />
    <vehicle id="WE_312" type="typeStraight" route="WE" depart="687" />
    <vehicle id="ES_313" type="typeTurn" route="ES" depart="689" />
    <vehicle id="WN_314" type="typeTurn" route="WN" depart="692" />
    <vehicle id="NS_315" type="typeStraight" route="NS" depart="693" />
    <vehicle id="SN_316" type="typeStraight" route="SN" depart="694" />
    <vehicle id="ES_317" type="typeTurn" route="ES" depart="694" />
    <vehicle id="SW_318" type="typeTurn" route="SW" depart="695" />
    <vehicle id="SW_319" type="typeTurn" route="SW" depart="699" />
    <vehicle id="NS_320" type="typeStraight" route="NS" depart="700" />
    <vehicle id="SN_321" type="typeStraight" route="SN" depart="700" />
    <vehicle id="NE_322" type="typeTurn" route="NE" depart="702" />
    <vehicle id="NS_323" type="typeStraight" route="NS" depart="703" />
    <vehicle id="SW_324" type="typeTurn" route="SW" depart="705" />
    <vehicle id="SN_325" type="typeStraight" route="SN" depart="706" />
    <vehicle id="SW_326" type="typeTurn" route="SW" depart="714" />
    <vehicle id="WN_327" type="typeTurn" route="WN" depart="714" />
    <vehicle id="NS_328" type="typeStraight" route="NS" depart="715" />
    <vehicle id="NS_329" type="typeStraight" route="NS" depart="716" />
    <vehicle id="WE_330" type="typeStraight" route="WE" depart="717" />
    <vehicle id="NE_331" type="typeTurn" route="NE" depart="719" />
    <vehicle id="SW_332" type="typeTurn" route="SW" depart="720" />
    <vehicle id="SN_333" type="typeStraight" route="SN" depart="728" />
    <vehicle id="ES_334" type="typeTurn" route="ES" depart="730" />
    <vehicle id="WE_335" type="typeStraight" route="WE" depart="732" />
    <vehicle id="SN_336" type="typeStraight" route="SN" depart="733" />
    <vehicle id="ES_337" type="typeTurn" route="ES" depart="734" />
    <vehicle id="WN_338" type="typeTurn" route="WN" depart="738" />
    <vehicle id="SN_339" type="typeStraight" route="SN" depart="743" />
    <vehicle id="NS_340" type="typeStraight" route="NS" depart="745" />
    <vehicle id="EW_341" type="typeStraight" route="EW" depart="745" />
    <vehicle id="ES_342" type="typeTurn" route="ES" depart="745" />
    <vehicle id="SN_343" type="typeStraight" route="SN" depart="749" />
    <vehicle id="WN_344" type="typeTurn" route="WN" depart="752" />
    <vehicle id="WE_345" type="typeStraight" route="WE" depart="756" />
    <vehicle id="SN_346" type="typeStraight" route="SN" depart="758" />
    <vehicle id="NE_347" type="typeTurn" route="NE" depart="759" />
    <vehicle id="EW_348" type="typeStraight" route="EW" depart="761" />
    <vehicle id="SN_349" type="typeStraight" route="SN" depart="765" />
    <vehicle id="SN_350" type="typeStraight" route="SN" depart="772" />
    <vehicle id="SW_351" type="typeTurn" route="SW" depart="772" />
    <vehicle id="ES_352" type="typeTurn" route="ES" depart="774" />
    <vehicle id="EW_353" type="typeStraight" route="EW" depart="775" />
    <vehicle id="EW_354" type="typeStraight" route="EW" depart="778" />
    <vehicle id="ES_355" type="typeTurn" route="ES" depart="778" />
    <vehicle id="SW_356" type="typeTurn" route="SW" depart="779" />
    <vehicle id="SN_357" type="typeStraight" route="SN" depart="781" />
    <vehicle id="ES_358" type="typeTurn" route="ES" depart="784" />
    <vehicle id="NS_359" type="typeStraight" route="NS" depart="786" />
    <vehicle id="NS_360" type="typeStraight" route="NS" depart="788" />
    <vehicle id="NS_361" type="typeStraight" route="NS" depart="791" />
    <vehicle id="NS_362" type="typeStraight" route="NS" depart="793" />
    <vehicle id="SN_363" type="typeStraight" route="SN" depart="794" />
    <vehicle id="SW_364" type="typeTurn" route="SW" depart="800" />
    <vehicle id="SW_365" type="typeTurn" route="SW" depart="804" />
    <vehicle id="WN_366" type="typeTurn" route="WN" depart="806" />
    <vehicle id="NE_367" type="typeTurn" route="NE" depart="816" />
    <vehicle id="SW_368" type="typeTurn" route="SW" depart="817" />
    <vehicle id="WE_369" type="typeStraight" route="WE" depart="818" />
    <vehicle id="EW_370" type="typeStraight" route="EW" depart="820" />
    <vehicle id="SN_371" type="typeStraight" route="SN" depart="823" />
    <vehicle id="WN_372" type="typeTurn" route="WN" depart="823" />
    <vehicle id="SW_373" type="typeTurn" route="SW" depart="824" />
    <vehicle id="WE_374" type="typeStraight" route="WE" depart="827" />
    <vehicle id="SN_375" type="typeStraight" route="SN" depart="829" />
    <vehicle id="WE_376" type="typeStraight" route="WE" depart="830" />
    <vehicle id="NS_377" type="typeStraight" route="NS" depart="831" />
    <vehicle id="SN_378" type="typeStraight" route="SN" depart="835" />
    <vehicle id="WN_379" type="typeTurn" route="WN" depart="837" />
    <vehicle id="ES_380" type="typeTurn" route="ES" depart="837" />
    <vehicle id="ES_381" type="typeTurn" route="ES" depart="841" />
    <vehicle id="NS_382" type="typeStraight" route="NS" depart="844" />
    <vehicle id="SN_383" type="typeStraight" route="SN" depart="844" />
    <vehicle id="ES_384" type="typeTurn" route="ES" depart="845" />
    <vehicle id="SN_385" type="typeStraight" route="SN" depart="847" />
    <vehicle id="SW_386" type="typeTurn" route="SW" depart="847" />
    <vehicle id="ES_387" type="typeTurn" route="ES" depart="850" />
    <vehicle id="NS_388" type="typeStraight" route="NS" depart="855" />
    <vehicle id="NE_389" type="typeTurn" route="NE" depart="855" />
    <vehicle id="ES_390" type="typeTurn" route="ES" depart="855" />
    <vehicle id="NS_391" type="typeStraight" route="NS" depart="856" />
    <vehicle id="NS_392" type="typeStraight" route="NS" depart="857" />
    <vehicle id="SN_393" type="typeStraight" route="SN" depart="859" />
    <vehicle id="NS_394" type="typeStraight" route="NS" depart="864" />
    <vehicle id="SN_395" type="typeStraight" route="SN" depart="864" />
    <vehicle id="NE_396" type="typeTurn" route="NE" depart="865" />
    <vehicle id="SN_397" type="typeStraight" route="SN" depart="867" />
    <vehicle id="SN_398" type="typeStraight" route="SN" depart="869" />
    <vehicle id="EW_399" type="typeStraight" route="EW" depart="870" />
    <vehicle id="SN_400" type="typeStraight" route="SN" depart="872" />
    <vehicle id="NS_401" type="typeStraight" route="NS" depart="876" />
    <vehicle id="SN_402" type="typeStraight" route="SN" depart="880" />
    <vehicle id="SW_403" type="typeTurn" route="SW" depart="881" />
    <vehicle id="NS_404" type="typeStraight" route="NS" depart="887" />
    <vehicle id="NS_405" type="typeStraight" route="NS" depart="888" />
    <vehicle id="NE_406" type="typeTurn" route="NE" depart="889" />
    <vehicle id="SW_407" type="typeTurn" route="SW" depart="889" />
    <vehicle id="WE_408" type="typeStraight" route="WE" depart="891" />
    <vehicle id="EW_409" type="typeStraight" route="EW" depart="896" />
    <vehicle id="SW_410" type="typeTurn" route="SW" depart="897" />
    <vehicle id="WN_411" type="typeTurn" route="WN" depart="898" />
    <vehicle id="WE_412" type="typeStraight" route="WE" depart="901" />
    <vehicle id="ES_413" type="typeTurn" route="ES" depart="901" />
    <vehicle id="SW_414" type="typeTurn" route="SW" depart="903" />
    <vehicle id="EW_415" type="typeStraight" route="EW" depart="904" />
    <vehicle id="SW_416" type="typeTurn" route="SW" depart="905" />
    <vehicle id="NS_417" type="typeStraight" route="NS" depart="911" />
    <vehicle id="EW_418" type="typeStraight" route="EW" depart="912" />
    <vehicle id="SN_419" type="typeStraight" route="SN" depart="913" />
    <vehicle id="NS_420" type="typeStraight" route="NS" depart="917" />
    <vehicle id="SW_421" type="typeTurn" route="SW" depart="917" />