<routes>
        <vType id="typeStraight" accel="1" decel="4.5" sigma="0.5" length="5" minGap="2.5" maxSpeed="13.9" guiShape="passenger"/>
        <vType id="typeTurn" accel="1" decel="4.5" sigma="0.5" length="5" minGap="2.5" maxSpeed="13.9" guiShape="passenger"/>

        <route id="WE" edges="1i 2o" />
        <route id="EW" edges="2i 1o " />
        <route id="NS" edges="4i 3o " />
        <route id="SN" edges="3i 4o " />
        <route id="NE" edges="4i 2o" />
        <route id="ES" edges="2i 3o " />
        <route id="SW" edges="3i 1o " />
        <route id="WN" edges="1i 4o " />
    <vehicle id="NE_0" type="typeTurn" route="NE" depart="0" />
    <vehicle id="ES_1" type="typeTurn" route="ES" depart="0" />
    <vehicle id="NE_2" type="typeTurn" route="NE" depart="1" />
    <vehicle id="WE_3" type="typeStraight" route="WE" depart="1" />
    <vehicle id="WN_4" type="typeTurn" route="WN" depart="1" />
    <vehicle id="SW_5" type="typeTurn" route="SW" depart="2" />
    <vehicle id="ES_6" type="typeTurn" route="ES" depart="2" />
    <vehicle id="NE_7" type="typeTurn" route="NE" depart="5" />
    <vehicle id="WE_8" type="typeStraight" route="WE" depart="5" />
    <vehicle id="WN_9" type="typeTurn" route="WN" depart="5" />
    <vehicle id="EW_10" type="typeStraight" route="EW" depart="5" />
    <vehicle id="ES_11" type="typeTurn" route="ES" depart="5" />
    <vehicle id="WE_12" type="typeStraight" route="WE" depart="6" />
    <vehicle id="SW_13" type="typeTurn" route="SW" depart="8" />
    <vehicle id="WN_14" type="typeTurn" route="WN" depart="8" />
    <vehicle id="EW_15" type="typeStraight" route="EW" depart="8" />
    <vehicle id="EW_16" type="typeStraight" route="EW" depart="9" />
    <vehicle id="ES_17" type="typeTurn" route="ES" depart="9" />
    <vehicle id="WN_18" type="typeTurn" route="WN" depart="10" />
    <vehicle id="NE_19" type="typeTurn" route="NE" depart="11" />
    <vehicle id="EW_20" type="typeStraight" route="EW" depart="11" />
    <vehicle id="WE_21" type="typeStraight" route="WE" depart="12" />
    <vehicle id="ES_22" type="typeTurn" route="ES" depart="13" />
    <vehicle id="WE_23" type="typeStraight" route="WE" depart="14" />
    <vehicle id="ES_24" type="typeTurn" route="ES" depart="14" />
    <vehicle id="WE_25" type="typeStraight" route="WE" depart="15" />
    <vehicle id="EW_26" type="typeStraight" route="EW" depart="15" />
    <vehicle id="EW_27" type="typeStraight" route="EW" depart="16" />
    <vehicle id="EW_28" type="typeStraight" route="EW" depart="17" />
    <vehicle id="WE_29" type="typeStraight" route="WE" depart="18" />
    <vehicle id="EW_30" type="typeStraight" route="EW" depart="19" />
    <vehicle id="ES_31" type="typeTurn" route="ES" depart="19" />
    <vehicle id="WN_32" type="typeTurn" route="WN" depart="20" />
    <vehicle id="EW_33" type="typeStraight" route="EW" depart="20" />
    <vehicle id="ES_34" type="typeTurn" route="ES" depart="21" />
    <vehicle id="ES_35" type="typeTurn" route="ES" depart="22" />
    <vehicle id="WE_36" type="typeStraight" route="WE" depart="23" />
    <vehicle id="ES_37" type="typeTurn" route="ES" depart="23" />
    <vehicle id="WN_38" type="typeTurn" route="WN" depart="24" />
    <vehicle id="WN_39" type="typeTurn" route="WN" depart="25" />
    <vehicle id="ES_40" type="typeTurn" route="ES" depart="25" />
    <vehicle id="WE_41" type="typeStraight" route="WE" depart="28" />
    <vehicle id="EW_42" type="typeStraight" route="EW" depart="28" />
    <vehicle id="ES_43" type="typeTurn" route="ES" depart="28" />
    <vehicle id="WN_44" type="typeTurn" route="WN" depart="29" />
    <vehicle id="WE_45" type="typeStraight" route="WE" depart="30" />
    <vehicle id="EW_46" type="typeStraight" route="EW" depart="30" />
    <vehicle id="WE_47" type="typeStraight" route="WE" depart="31" />
    <vehicle id="ES_48" type="typeTurn" route="ES" depart="32" />
    <vehicle id="WN_49" type="typeTurn" route="WN" depart="33" />
    <vehicle id="ES_50" type="typeTurn" route="ES" depart="33" />
    <vehicle id="WE_51" type="typeStraight" route="WE" depart="34" />
    <vehicle id="EW_52" type="typeStraight" route="EW" depart="34" />
    <vehicle id="ES_53" type="typeTurn" route="ES" depart="35" />
    <vehicle id="SN_54" type="typeStraight" route="SN" depart="36" />
    <vehicle id="WN_55" type="typeTurn" route="WN" depart="36" />
    <vehicle id="NE_56" type="typeTurn" route="NE" depart="37" />
    <vehicle id="ES_57" type="typeTurn" route="ES" depart="38" />
    <vehicle id="EW_58" type="typeStraight" route="EW" depart="39" />
    <vehicle id="WE_59" type="typeStraight" route="WE" depart="40" />
    <vehicle id="WN_60" type="typeTurn" route="WN" depart="41" />
    <vehicle id="WN_61" type="typeTurn" route="WN" depart="42" />
    <vehicle id="EW_62" type="typeStraight" route="EW" depart="42" />
    <vehicle id="ES_63" type="typeTurn" route="ES" depart="42" />
    <vehicle id="WN_64" type="typeTurn" route="WN" depart="44" />
    <vehicle id="EW_65" type="typeStraight" route="EW" depart="44" />
    <vehicle id="EW_66" type="typeStraight" route="EW" depart="45" />
    <vehicle id="NS_67" type="typeStraight" route="NS" depart="46" />
    <vehicle id="ES_68" type="typeTurn" route="ES" depart="46" />
    <vehicle id="SN_69" type="typeStraight" route="SN" depart="49" />
    <vehicle id="WN_70" type="typeTurn" route="WN" depart="50" />
    <vehicle id="EW_71" type="typeStraight" route="EW" depart="50" />
    <vehicle id="WN_72" type="typeTurn" route="WN" depart="51" />
    <vehicle id="EW_73" type="typeStraight" route="EW" depart="51" />
    <vehicle id="ES_74" type="typeTurn" route="ES" depart="51" />
    <vehicle id="EW_75" type="typeStraight" route="EW" depart="52" />
    <vehicle id="SW_76" type="typeTurn" route="SW" depart="53" />
    <vehicle id="EW_77" type="typeStraight" route="EW" depart="53" />
    <vehicle id="WE_78" type="typeStraight" route="WE" depart="54" />
    <vehicle id="WN_79" type="typeTurn" route="WN" depart="56" />
    <vehicle id="EW_80" type="typeStraight" route="EW" depart="56" />
    <vehicle id="WE_81" type="typeStraight" route="WE" depart="57" />
    <vehicle id="WN_82" type="typeTurn" route="WN" depart="57" />
    <vehicle id="EW_83" type="typeStraight" route="EW" depart="57" />
    <vehicle id="WN_84" type="typeTurn" route="WN" depart="58" />
    <vehicle id="NE_85" type="typeTurn" route="NE" depart="60" />
    <vehicle id="WN_86" type="typeTurn" route="WN" depart="61" />
    <vehicle id="WN_87" type="typeTurn" route="WN" depart="62" />
    <vehicle id="NS_88" type="typeStraight" route="NS" depart="63" />
    <vehicle id="WE_89" type="typeStraight" route="WE" depart="63" />
    <vehicle id="EW_90" type="typeStraight" route="EW" depart="63" />
    <vehicle id="WE_91" type="typeStraight" route="WE" depart="64" />
    <vehicle id="WN_92" type="typeTurn" route="WN" depart="64" />
    <vehicle id="EW_93" type="typeStraight" route="EW" depart="64" />
    <vehicle id="ES_94" type="typeTurn" route="ES" depart="65" />
    <vehicle id="NS_95" type="typeStraight" route="NS" depart="66" />
    <vehicle id="WN_96" type="typeTurn" route="WN" depart="66" />
    <vehicle id="EW_97" type="typeStraight" route="EW" depart="67" />
    <vehicle id="ES_98" type="typeTurn" route="ES" depart="67" />
    <vehicle id="WN_99" type="typeTurn" route="WN" depart="68" />
    <vehicle id="WE_100" type="typeStraight" route="WE" depart="69" />
    <vehicle id="EW_101" type="typeStraight" route="EW" depart="70" />
    <vehicle id="EW_102" type="typeStraight" route="EW" depart="71" />
    <vehicle id="WE_103" type="typeStraight" route="WE" depart="72" />
    <vehicle id="ES_104" type="typeTurn" route="ES" depart="72" />
    <vehicle id="WN_105" type="typeTurn" route="WN" depart="73" />
    <vehicle id="ES_106" type="typeTurn" route="ES" depart="73" />
    <vehicle id="WN_107" type="typeTurn" route="WN" depart="74" />
    <vehicle id="EW_108" type="typeStraight" route="EW" depart="74" />
    <vehicle id="WE_109" type="typeStraight" route="WE" depart="77" />
    <vehicle id="WN_110" type="typeTurn" route="WN" depart="77" />
    <vehicle id="EW_111" type="typeStraight" route="EW" depart="77" />
    <vehicle id="ES_112" type="typeTurn" route="ES" depart="77" />
    <vehicle id="WE_113" type="typeStraight" route="WE" depart="79" />
    <vehicle id="WN_114" type="typeTurn" route="WN" depart="79" />
    <vehicle id="ES_115" type="typeTurn" route="ES" depart="79" />
    <vehicle id="ES_116" type="typeTurn" route="ES" depart="82" />
    <vehicle id="EW_117" type="typeStraight" route="EW" depart="84" />
    <vehicle id="ES_118" type="typeTurn" route="ES" depart="84" />
    <vehicle id="WE_119" type="typeStraight" route="WE" depart="85" />
    <vehicle id="ES_120" type="typeTurn" route="ES" depart="85" />
    <vehicle id="ES_121" type="typeTurn" route="ES" depart="87" />
    <vehicle id="WE_122" type="typeStraight" route="WE" depart="88" />
    <vehicle id="WN_123" type="typeTurn" route="WN" depart="88" />
    <vehicle id="WE_124" type="typeStraight" route="WE" depart="89" />
    <vehicle id="ES_125" type="typeTurn" route="ES" depart="89" />
    <vehicle id="ES_126" type="typeTurn" route="ES" depart="90" />
    <vehicle id="NS_127" type="typeStraight" route="NS" depart="91" />
    <vehicle id="WN_128" type="typeTurn" route="WN" depart="91" />
    <vehicle id="EW_129" type="typeStraight" route="EW" depart="94" />
    <vehicle id="WE_130" type="typeStraight" route="WE" depart="96" />
    <vehicle id="ES_131" type="typeTurn" route="ES" depart="96" />
    <vehicle id="WN_132" type="typeTurn" route="WN" depart="100" />
    <vehicle id="WE_133" type="typeStraight" route="WE" depart="101" />
    <vehicle id="ES_134" type="typeTurn" route="ES" depart="101" />
    <vehicle id="NE_135" type="typeTurn" route="NE" depart="102" />
    <vehicle id="SN_136" type="typeStraight" route="SN" depart="103" />
    <vehicle id="WN_137" type="typeTurn" route="WN" depart="104" />
    <vehicle id="SW_138" type="typeTurn" route="SW" depart="106" />
    <vehicle id="WE_139" type="typeStraight" route="WE" depart="106" />
    <vehicle id="NS_140" type="typeStraight" route="NS" depart="108" />
    <vehicle id="WE_141" type="typeStraight" route="WE" depart="108" />
    <vehicle id="WE_142" type="typeStraight" route="WE" depart="109" />
    <vehicle id="EW_143" type="typeStraight" route="EW" depart="109" />
    <vehicle id="SN_144" type="typeStraight" route="SN" depart="110" />
    <vehicle id="EW_145" type="typeStraight" route="EW" depart="110" />
    <vehicle id="WE_146" type="typeStraight" route="WE" depart="111" />
    <vehicle id="EW_147" type="typeStraight" route="EW" depart="111" />
    <vehicle id="WN_148" type="typeTurn" route="WN" depart="112" />
    <vehicle id="WE_149" type="typeStraight" route="WE" depart="113" />
    <vehicle id="WE_150" type="typeStraight" route="WE" depart="116" />
    <vehicle id="WN_151" type="typeTurn" route="WN" depart="116" />
    <vehicle id="WE_152" type="typeStraight" route="WE" depart="119" />
    <vehicle id="WE_153" type="typeStraight" route="WE" depart="120" />
    <vehicle id="WN_154" type="typeTurn" route="WN" depart="120" />
    <vehicle id="EW_155" type="typeStraight" route="EW" depart="120" />
    <vehicle id="WE_156" type="typeStraight" route="WE" depart="122" />
    <vehicle id="EW_157" type="typeStraight" route="EW" depart="122" />
    <vehicle id="WN_158" type="typeTurn" route="WN" depart="123" />
    <vehicle id="ES_159" type="typeTurn" route="ES" depart="123" />
    <vehicle id="SW_160" type="typeTurn" route="SW" depart="124" />
    <vehicle id="EW_161" type="typeStraight" route="EW" depart="125" />
    <vehicle id="ES_162" type="typeTurn" route="ES" depart="125" />
    <vehicle id="WN_163" type="typeTurn" route="WN" depart="126" />
    <vehicle id="ES_164" type="typeTurn" route="ES" depart="126" />
    <vehicle id="WE_165" type="typeStraight" route="WE" depart="127" />
    <vehicle id="WN_166" type="typeTurn" route="WN" depart="127" />
    <vehicle id="SN_167" type="typeStraight" route="SN" depart="128" />
    <vehicle id="WE_168" type="typeStraight" route="WE" depart="128" />
    <vehicle id="WN_169" type="typeTurn" route="WN" depart="128" />
    <vehicle id="EW_170" type="typeStraight" route="EW" depart="128" />
    <vehicle id="ES_171" type="typeTurn" route="ES" depart="128" />
    <vehicle id="NE_172" type="typeTurn" route="NE" depart="129" />
    <vehicle id="SN_173" type="typeStraight" route="SN" depart="129" />
    <vehicle id="WE_174" type="typeStraight" route="WE" depart="129" />
    <vehicle id="EW_175" type="typeStraight" route="EW" depart="129" />
    <vehicle id="ES_176" type="typeTurn" route="ES" depart="129" />
    <vehicle id="EW_177" type="typeStraight" route="EW" depart="130" />
    <vehicle id="NE_178" type="typeTurn" route="NE" depart="131" />
    <vehicle id="ES_179" type="typeTurn" route="ES" depart="131" />
    <vehicle id="WN_180" type="typeTurn" route="WN" depart="132" />
    <vehicle id="EW_181" type="typeStraight" route="EW" depart="132" />
    <vehicle id="ES_182" type="typeTurn" route="ES" depart="134" />
    <vehicle id="WN_183" type="typeTurn" route="WN" depart="135" />
    <vehicle id="WN_184" type="typeTurn" route="WN" depart="136" />
    <vehicle id="EW_185" type="typeStraight" route="EW" depart="136" />
    <vehicle id="WN_186" type="typeTurn" route="WN" depart="137" />
    <vehicle id="ES_187" type="typeTurn" route="ES" depart="138" />
    <vehicle id="WN_188" type="typeTurn" route="WN" depart="140" />
    <vehicle id="WN_189" type="typeTurn" route="WN" depart="141" />
    <vehicle id="SW_190" type="typeTurn" route="SW" depart="142" />
    <vehicle id="WN_191" type="typeTurn" route="WN" depart="142" />
    <vehicle id="WE_192" type="typeStraight" route="WE" depart="143" />
    <vehicle id="WN_193" type="typeTurn" route="WN" depart="143" />
    <vehicle id="EW_194" type="typeStraight" route="EW" depart="143" />
    <vehicle id="WN_195" type="typeTurn" route="WN" depart="144" />
    <vehicle id="ES_196" type="typeTurn" route="ES" depart="144" />
    <vehicle id="WN_197" type="typeTurn" route="WN" depart="145" />
    <vehicle id="NS_198" type="typeStraight" route="NS" depart="146" />
    <vehicle id="WE_199" type="typeStraight" route="WE" depart="146" />
    <vehicle id="EW_200" type="typeStraight" route="EW" depart="146" />
    <vehicle id="EW_201" type="typeStraight" route="EW" depart="147" />
    <vehicle id="NS_202" type="typeStraight" route="NS" depart="148" />
    <vehicle id="NE_203" type="typeTurn" route="NE" depart="148" />
    <vehicle id="NE_204" type="typeTurn" route="NE" depart="149" />
    <vehicle id="ES_205" type="typeTurn" route="ES" depart="149" />
    <vehicle id="ES_206" type="typeTurn" route="ES" depart="152" />
    <vehicle id="WE_207" type="typeStraight" route="WE" depart="154" />
    <vehicle id="ES_208" type="typeTurn" route="ES" depart="154" />
    <vehicle id="WE_209" type="typeStraight" route="WE" depart="155" />
    <vehicle id="EW_210" type="typeStraight" route="EW" depart="155" />
    <vehicle id="WE_211" type="typeStraight" route="WE" depart="157" />
    <vehicle id="WN_212" type="typeTurn" route="WN" depart="157" />
    <vehicle id="EW_213" type="typeStraight" route="EW" depart="157" />
    <vehicle id="WE_214" type="typeStraight" route="WE" depart="158" />
    <vehicle id="EW_215" type="typeStraight" route="EW" depart="163" />
    <vehicle id="ES_216" type="typeTurn" route="ES" depart="163" />
    <vehicle id="WE_217" type="typeStraight" route="WE" depart="164" />
    <vehicle id="EW_218" type="typeStraight" route="EW" depart="164" />
    <vehicle id="SN_219" type="typeStraight" route="SN" depart="165" />
    <vehicle id="WN_220" type="typeTurn" route="WN" depart="165" />
    <vehicle id="ES_221" type="typeTurn" route="ES" depart="165" />
    <vehicle id="ES_222" type="typeTurn" route="ES" depart="166" />
    <vehicle id="WN_223" type="typeTurn" route="WN" depart="168" />
    <vehicle id="WE_224" type="typeStraight" route="WE" depart="169" />
    <vehicle id="WN_225" type="typeTurn" route="WN" depart="170" />
    <vehicle id="ES_226" type="typeTurn" route="ES" depart="170" />
    <vehicle id="WN_227" type="typeTurn" route="WN" depart="171" />
    <vehicle id="EW_228" type="typeStraight" route="EW" depart="171" />
    <vehicle id="SW_229" type="typeTurn" route="SW" depart="172" />
    <vehicle id="WE_230" type="typeStraight" route="WE" depart="173" />
    <vehicle id="ES_231" type="typeTurn" route="ES" depart="173" />
    <vehicle id="EW_232" type="typeStraight" route="EW" depart="174" />
    <vehicle id="ES_233" type="typeTurn" route="ES" depart="174" />
    <vehicle id="NE_234" type="typeTurn" route="NE" depart="175" />
    <vehicle id="WN_235" type="typeTurn" route="WN" depart="175" />
    <vehicle id="NS_236" type="typeStraight" route="NS" depart="176" />
    <vehicle id="EW_237" type="typeStraight" route="EW" depart="176" />
    <vehicle id="WE_238" type="typeStraight" route="WE" depart="178" />
    <vehicle id="WN_239" type="typeTurn" route="WN" depart="178" />
    <vehicle id="WN_240" type="typeTurn" route="WN" depart="179" />
    <vehicle id="EW_241" type="typeStraight" route="EW" depart="180" />
    <vehicle id="SN_242" type="typeStraight" route="SN" depart="181" />
    <vehicle id="WE_243" type="typeStraight" route="WE" depart="181" />
    <vehicle id="WN_244" type="typeTurn" route="WN" depart="184" />
    <vehicle id="NE_245" type="typeTurn" route="NE" depart="186" />
    <vehicle id="WN_246" type="typeTurn" route="WN" depart="186" />
    <vehicle id="EW_247" type="typeStraight" route="EW" depart="187" />
    <vehicle id="NE_248" type="typeTurn" route="NE" depart="188" />
    <vehicle id="EW_249" type="typeStraight" route="EW" depart="190" />
    <vehicle id="ES_250" type="typeTurn" route="ES" depart="190" />
    <vehicle id="WN_251" type="typeTurn" route="WN" depart="191" />
    <vehicle id="ES_252" type="typeTurn" route="ES" depart="192" />
    <vehicle id="WE_253" type="typeStraight" route="WE" depart="194" />
    <vehicle id="EW_254" type="typeStraight" route="EW" depart="197" />
    <vehicle id="ES_255" type="typeTurn" route="ES" depart="197" />
    <vehicle id="ES_256" type="typeTurn" route="ES" depart="199" />
    <vehicle id="NS_257" type="typeStraight" route="NS" depart="201" />
    <vehicle id="NE_258" type="typeTurn" route="NE" depart="201" />
    <vehicle id="ES_259" type="typeTurn" route="ES" depart="202" />
    <vehicle id="WE_260" type="typeStraight" route="WE" depart="203" />
    <vehicle id="EW_261" type="typeStraight" route="EW" depart="205" />
    <vehicle id="NE_262" type="typeTurn" route="NE" depart="207" />
    <vehicle id="WN_263" type="typeTurn" route="WN" depart="207" />
    <vehicle id="ES_264" type="typeTurn" route="ES" depart="207" />
    <vehicle id="WN_265" type="typeTurn" route="WN" depart="209" />
    <vehicle id="ES_266" type="typeTurn" route="ES" depart="209" />
    <vehicle id="WN_267" type="typeTurn" route="WN" depart="210" />
    <vehicle id="WE_268" type="typeStraight" route="WE" depart="211" />
    <vehicle id="ES_269" type="typeTurn" route="ES" depart="211" />
    <vehicle id="NE_270" type="typeTurn" route="NE" depart="215" />
    <vehicle id="WN_271" type="typeTurn" route="WN" depart="216" />
    <vehicle id="ES_272" type="typeTurn" route="ES" depart="216" />
    <vehicle id="SN_273" type="typeStraight" route="SN" depart="217" />
    <vehicle id="WE_274" type="typeStraight" route="WE" depart="217" />
    <vehicle id="WE_275" type="typeStraight" route="WE" depart="218" />
    <vehicle id="WN_276" type="typeTurn" route="WN" depart="218" />
    <vehicle id="WE_277" type="typeStraight" route="WE" depart="220" />
    <vehicle id="EW_278" type="typeStraight" route="EW" depart="220" />
    <vehicle id="WN_279" type="typeTurn" route="WN" depart="223" />
    <vehicle id="ES_280" type="typeTurn" route="ES" depart="223" />
    <vehicle id="EW_281" type="typeStraight" route="EW" depart="224" />
    <vehicle id="WN_282" type="typeTurn" route="WN" depart="225" />
    <vehicle id="ES_283" type="typeTurn" route="ES" depart="225" />
    <vehicle id="EW_284" type="typeStraight" route="EW" depart="226" />
    <vehicle id="WE_285" type="typeStraight" route="WE" depart="229" />
    <vehicle id="EW_286" type="typeStraight" route="EW" depart="229" />
    <vehicle id="ES_287" type="typeTurn" route="ES" depart="230" />
    <vehicle id="WE_288" type="typeStraight" route="WE" depart="231" />
    <vehicle id="EW_289" type="typeStraight" route="EW" depart="232" />
    <vehicle id="WE_290" type="typeStraight" route="WE" depart="233" />
    <vehicle id="WN_291" type="typeTurn" route="WN" depart="233" />
    <vehicle id="SN_292" type="typeStraight" route="SN" depart="234" />
    <vehicle id="WN_293" type="typeTurn" route="WN" depart="234" />
    <vehicle id="EW_294" type="typeStraight" route="EW" depart="234" />
    <vehicle id="WN_295" type="typeTurn" route="WN" depart="235" />
    <vehicle id="ES_296" type="typeTurn" route="ES" depart="235" />
    <vehicle id="WE_297" type="typeStraight" route="WE" depart="237" />
    <vehicle id="ES_298" type="typeTurn" route="ES" depart="237" />
    <vehicle id="WE_299" type="typeStraight" route="WE" depart="238" />
    <vehicle id="WE_300" type="typeStraight" route="WE" depart="239" />
    <vehicle id="EW_301" type="typeStraight" route="EW" depart="239" />
    <vehicle id="WE_302" type="typeStraight" route="WE" depart="240" />
    <vehicle id="WE_303" type="typeStraight" route="WE" depart="241" />
    <vehicle id="EW_304" type="typeStraight" route="EW" depart="241" />
    <vehicle id="SW_305" type="typeTurn" route="SW" depart="242" />
    <vehicle id="WE_306" type="typeStraight" route="WE" depart="244" />
    <vehicle id="NE_307" type="typeTurn" route="NE" depart="245" />
    <vehicle id="SN_308" type="typeStraight" route="SN" depart="245" />
    <vehicle id="WN_309" type="typeTurn" route="WN" depart="246" />
    <vehicle id="SN_310" type="typeStraight" route="SN" depart="247" />
    <vehicle id="WE_311" type="typeStraight" route="WE" depart="247" />
    <vehicle id="WN_312" type="typeTurn" route="WN" depart="247" />
    <vehicle id="NS_313" type="typeStraight" route="NS" depart="248" />
    <vehicle id="WE_314" type="typeStraight" route="WE" depart="248" />
    <vehicle id="EW_315" type="typeStraight" route="EW" depart="248" />
    <vehicle id="WE_316" type="typeStraight" route="WE" depart="250" />
    <vehicle id="WN_317" type="typeTurn" route="WN" depart="253" />
    <vehicle id="EW_318" type="typeStraight" route="EW" depart="253" />
    <vehicle id="ES_319" type="typeTurn" route="ES" depart="253" />
    <vehicle id="WN_320" type="typeTurn" route="WN" depart="254" />
    <vehicle id="EW_321" type="typeStraight" route="EW" depart="254" />
    <vehicle id="SN_322" type="typeStraight" route="SN" depart="256" />
    <vehicle id="WN_323" type="typeTurn" route="WN" depart="256" />
    <vehicle id="WE_324" type="typeStraight" route="WE" depart="258" />
    <vehicle id="WE_325" type="typeStraight" route="WE" depart="259" />
    <vehicle id="WN_326" type="typeTurn" route="WN" depart="259" />
    <vehicle id="EW_327" type="typeStraight" route="EW" depart="259" />
    <vehicle id="EW_328" type="typeStraight" route="EW" depart="261" />
    <vehicle id="EW_329" type="typeStraight" route="EW" depart="262" />
    <vehicle id="ES_330" type="typeTurn" route="ES" depart="262" />
    <vehicle id="EW_331" type="typeStraight" route="EW" depart="263" />
    <vehicle id="NS_332" type="typeStraight" route="NS" depart="264" />
    <vehicle id="NS_333" type="typeStraight" route="NS" depart="265" />
    <vehicle id="SN_334" type="typeStraight" route="SN" depart="265" />
    <vehicle id="WE_335" type="typeStraight" route="WE" depart="265" />
    <vehicle id="EW_336" type="typeStraight" route="EW" depart="265" />
    <vehicle id="WE_337" type="typeStraight" route="WE" depart="266" />
    <vehicle id="WN_338" type="typeTurn" route="WN" depart="266" />
    <vehicle id="EW_339" type="typeStraight" route="EW" depart="266" />
    <vehicle id="ES_340" type="typeTurn" route="ES" depart="267" />
    <vehicle id="WN_341" type="typeTurn" route="WN" depart="268" />
    <vehicle id="NE_342" type="typeTurn" route="NE" depart="269" />
    <vehicle id="SN_343" type="typeStraight" route="SN" depart="270" />
    <vehicle id="ES_344" type="typeTurn" route="ES" depart="270" />
    <vehicle id="WE_345" type="typeStraight" route="WE" depart="271" />
    <vehicle id="WE_346" type="typeStraight" route="WE" depart="272" />
    <vehicle id="WN_347" type="typeTurn" route="WN" depart="272" />
    <vehicle id="EW_348" type="typeStraight" route="EW" depart="272" />
    <vehicle id="WE_349" type="typeStraight" route="WE" depart="273" />
    <vehicle id="NE_350" type="typeTurn" route="NE" depart="275" />
    <vehicle id="EW_351" type="typeStraight" route="EW" depart="276" />
    <vehicle id="ES_352" type="typeTurn" route="ES" depart="276" />
    <vehicle id="WE_353" type="typeStraight" route="WE" depart="277" />
    <vehicle id="WN_354" type="typeTurn" route="WN" depart="277" />
    <vehicle id="EW_355" type="typeStraight" route="EW" depart="278" />
    <vehicle id="WE_356" type="typeStraight" route="WE" depart="279" />
    <vehicle id="EW_357" type="typeStraight" route="EW" depart="279" />
    <vehicle id="WN_358" type="typeTurn" route="WN" depart="280" />
    <vehicle id="WE_359" type="typeStraight" route="WE" depart="281" />
    <vehicle id="WN_360" type="typeTurn" route="WN" depart="281" />
    <vehicle id="EW_361" type="typeStraight" route="EW" depart="281" />
    <vehicle id="WN_362" type="typeTurn" route="WN" depart="283" />
    <vehicle id="WE_363" type="typeStraight" route="WE" depart="284" />
    <vehicle id="WE_364" type="typeStraight" route="WE" depart="285" />
    <vehicle id="EW_365" type="typeStraight" route="EW" depart="286" />
    <vehicle id="WN_366" type="typeTurn" route="WN" depart="287" />
    <vehicle id="EW_367" type="typeStraight" route="EW" depart="289" />
    <vehicle id="SW_368" type="typeTurn" route="SW" depart="290" />
    <vehicle id="SN_369" type="typeStraight" route="SN" depart="291" />
    <vehicle id="EW_370" type="typeStraight" route="EW" depart="292" />
    <vehicle id="ES_371" type="typeTurn" route="ES" depart="292" />
    <vehicle id="WE_372" type="typeStraight" route="WE" depart="293" />
    <vehicle id="ES_373" type="typeTurn" route="ES" depart="293" />
    <vehicle id="ES_374" type="typeTurn" route="ES" depart="294" />
    <vehicle id="WN_375" type="typeTurn" route="WN" depart="295" />
    <vehicle id="EW_376" type="typeStraight" route="EW" depart="295" />
    <vehicle id="ES_377" type="typeTurn" route="ES" depart="295" />
    <vehicle id="WE_378" type="typeStraight" route="WE" depart="296" />
    <vehicle id="ES_379" type="typeTurn" route="ES" depart="296" />
    <vehicle id="WN_380" type="typeTurn" route="WN" depart="297" />
    <vehicle id="EW_381" type="typeStraight" route="EW" depart="298" />
    <vehicle id="WE_382" type="typeStraight" route="WE" depart="300" />
    <vehicle id="WN_383" type="typeTurn" route="WN" depart="300" />
    <vehicle id="EW_384" type="typeStraight" route="EW" depart="300" />
    <vehicle id="WE_385" type="typeStraight" route="WE" depart="301" />
    <vehicle id="EW_386" type="typeStraight" route="EW" depart="301" />
    <vehicle id="WN_387" type="typeTurn" route="WN" depart="302" />
    <vehicle id="SN_388" type="typeStraight" route="SN" depart="303" />
    <vehicle id="WE_389" type="typeStraight" route="WE" depart="304" />
    <vehicle id="WN_390" type="typeTurn" route="WN" depart="304" />
    <vehicle id="ES_391" type="typeTurn" route="ES" depart="304" />
    <vehicle id="ES_392" type="typeTurn" route="ES" depart="305" />
    <vehicle id="WN_393" type="typeTurn" route="WN" depart="306" />
    <vehicle id="WE_394" type="typeStraight" route="WE" depart="307" />
    <vehicle id="WE_395" type="typeStraight" route="WE" depart="308" />
    <vehicle id="WE_396" type="typeStraight" route="WE" depart="309" />
    <vehicle id="WN_397" type="typeTurn" route="WN" depart="309" />
    <vehicle id="EW_398" type="typeStraight" route="EW" depart="309" />
    <vehicle id="WE_399" type="typeStraight" route="WE" depart="310" />
    <vehicle id="WN_400" type="typeTurn" route="WN" depart="310" />
    <vehicle id="ES_401" type="typeTurn" route="ES" depart="311" />
    <vehicle id="WN_402" type="typeTurn" route="WN" depart="313" />
    <vehicle id="ES_403" type="typeTurn" route="ES" depart="313" />
    <vehicle id="WE_404" type="typeStraight" route="WE" depart="314" />
    <vehicle id="WN_405" type="typeTurn" route="WN" depart="315" />
    <vehicle id="ES_406" type="typeTurn" route="ES" depart="315" />
    <vehicle id="NS_407" type="typeStraight" route="NS" depart="317" />
    <vehicle id="WE_408" type="typeStraight" route="WE" depart="317" />
    <vehicle id="ES_409" type="typeTurn" route="ES" depart="317" />
    <vehicle id="WN_410" type="typeTurn" route="WN" depart="318" />
    <vehicle id="ES_411" type="typeTurn" route="ES" depart="318" />
    <vehicle id="WE_412" type="typeStraight" route="WE" depart="319" />
    <vehicle id="SW_413" type="typeTurn" route="SW" depart="320" />
    <vehicle id="WN_414" type="typeTurn" route="WN" depart="320" />
    <vehicle id="EW_415" type="typeStraight" route="EW" depart="320" />
    <vehicle id="NS_416" type="typeStraight" route="NS" depart="321" />
    <vehicle id="WN_417" type="typeTurn" route="WN" depart="321" />
    <vehicle id="EW_418" type="typeStraight" route="EW" depart="321" />
    <vehicle id="WE_419" type="typeStraight" route="WE" depart="322" />
    <vehicle id="ES_420" type="typeTurn" route="ES" depart="322" />
    <vehicle id="SW_421" type="typeTurn" route="SW" depart="323" />
    <vehicle id="WE_422" type="typeStraight" route="WE" depart="324" />