<routes>
        <vType id="typeStraight" accel="1" decel="4.5" sigma="0.5" length="5" minGap="2.5" maxSpeed="13.9" guiShape="passenger"/>
        <vType id="typeTurn" accel="1" decel="4.5" sigma="0.5" length="5" minGap="2.5" maxSpeed="13.9" guiShape="passenger"/>

        <route id="WE" edges="1i 2o" />
        <route id="EW" edges="2i 1o " />
        <route id="NS" edges="4i 3o " />
        <route id="SN" edges="3i 4o " />
        <route id="NE" edges="4i 2o" />
        <route id="ES" edges="2i 3o " />
        <route id="SW" edges="3i 1o " />
        <route id="WN" edges="1i 4o " />
    <vehicle id="NE_0" type="typeTurn" route="NE" depart="0" />
    <vehicle id="SN_1" type="typeStraight" route="SN" depart="0" />
    <vehicle id="SW_2" type="typeTurn" route="SW" depart="0" />
    <vehicle id="NE_3" type="typeTurn" route="NE" depart="1" />
    <vehicle id="SN_4" type="typeStraight" route="SN" depart="1" />
    <vehicle id="WE_5" type="typeStraight" route="WE" depart="1" />
    <vehicle id="NS_6" type="typeStraight" route="NS" depart="2" />
    <vehicle id="SW_7" type="typeTurn" route="SW" depart="2" />
    <vehicle id="SN_8" type="typeStraight" route="SN" depart="3" />
    <vehicle id="SW_9" type="typeTurn" route="SW" depart="3" />
    <vehicle id="NE_10" type="typeTurn" route="NE" depart="5" />
    <vehicle id="SN_11" type="typeStraight" route="SN" depart="5" />
    <vehicle id="SW_12" type="typeTurn" route="SW" depart="5" />
    <vehicle id="SW_13" type="typeTurn" route="SW" depart="6" />
    <vehicle id="NS_14" type="typeStraight" route="NS" depart="7" />
    <vehicle id="SN_15" type="typeStraight" route="SN" depart="7" />
    <vehicle id="SN_16" type="typeStraight" route="SN" depart="8" />
    <vehicle id="SW_17" type="typeTurn" route="SW" depart="8" />
    <vehicle id="NE_18" type="typeTurn" route="NE" depart="10" />
    <vehicle id="NS_19" type="typeStraight" route="NS" depart="11" />
    <vehicle id="NE_20" type="typeTurn" route="NE" depart="11" />
    <vehicle id="SN_21" type="typeStraight" route="SN" depart="11" />
    <vehicle id="WE_22" type="typeStraight" route="WE" depart="12" />
    <vehicle id="NS_23" type="typeStraight" route="NS" depart="13" />
    <vehicle id="SN_24" type="typeStraight" route="SN" depart="13" />
    <vehicle id="NE_25" type="typeTurn" route="NE" depart="14" />
    <vehicle id="WE_26" type="typeStraight" route="WE" depart="15" />
    <vehicle id="EW_27" type="typeStraight" route="EW" depart="15" />
    <vehicle id="SW_28" type="typeTurn" route="SW" depart="16" />
    <vehicle id="NS_29" type="typeStraight" route="NS" depart="17" />
    <vehicle id="SW_30" type="typeTurn" route="SW" depart="17" />
    <vehicle id="NE_31" type="typeTurn" route="NE" depart="18" />
    <vehicle id="SN_32" type="typeStraight" route="SN" depart="19" />
    <vehicle id="SW_33" type="typeTurn" route="SW" depart="19" />
    <vehicle id="NS_34" type="typeStraight" route="NS" depart="20" />
    <vehicle id="SN_35" type="typeStraight" route="SN" depart="20" />
    <vehicle id="NS_36" type="typeStraight" route="NS" depart="21" />
    <vehicle id="NE_37" type="typeTurn" route="NE" depart="21" />
    <vehicle id="NS_38" type="typeStraight" route="NS" depart="22" />
    <vehicle id="SW_39" type="typeTurn" route="SW" depart="23" />
    <vehicle id="NS_40" type="typeStraight" route="NS" depart="24" />
    <vehicle id="SW_41" type="typeTurn" route="SW" depart="25" />
    <vehicle id="SN_42" type="typeStraight" route="SN" depart="26" />
    <vehicle id="SN_43" type="typeStraight" route="SN" depart="27" />
    <vehicle id="SW_44" type="typeTurn" route="SW" depart="27" />
    <vehicle id="NS_45" type="typeStraight" route="NS" depart="28" />
    <vehicle id="SN_46" type="typeStraight" route="SN" depart="29" />
    <vehicle id="SW_47" type="typeTurn" route="SW" depart="29" />
    <vehicle id="NE_48" type="typeTurn" route="NE" depart="31" />
    <vehicle id="NS_49" type="typeStraight" route="NS" depart="32" />
    <vehicle id="NE_50" type="typeTurn" route="NE" depart="32" />
    <vehicle id="SN_51" type="typeStraight" route="SN" depart="32" />
    <vehicle id="WN_52" type="typeTurn" route="WN" depart="33" />
    <vehicle id="SN_53" type="typeStraight" route="SN" depart="34" />
    <vehicle id="SW_54" type="typeTurn" route="SW" depart="34" />
    <vehicle id="NE_55" type="typeTurn" route="NE" depart="35" />
    <vehicle id="SW_56" type="typeTurn" route="SW" depart="35" />
    <vehicle id="NE_57" type="typeTurn" route="NE" depart="36" />
    <vehicle id="SN_58" type="typeStraight" route="SN" depart="36" />
    <vehicle id="NE_59" type="typeTurn" route="NE" depart="37" />
    <vehicle id="SN_60" type="typeStraight" route="SN" depart="37" />
    <vehicle id="NS_61" type="typeStraight" route="NS" depart="38" />
    <vehicle id="NE_62" type="typeTurn" route="NE" depart="38" />
    <vehicle id="NS_63" type="typeStraight" route="NS" depart="39" />
    <vehicle id="NE_64" type="typeTurn" route="NE" depart="39" />
    <vehicle id="WE_65" type="typeStraight" route="WE" depart="40" />
    <vehicle id="SW_66" type="typeTurn" route="SW" depart="41" />
    <vehicle id="NS_67" type="typeStraight" route="NS" depart="42" />
    <vehicle id="EW_68" type="typeStraight" route="EW" depart="42" />
    <vehicle id="SW_69" type="typeTurn" route="SW" depart="43" />
    <vehicle id="NE_70" type="typeTurn" route="NE" depart="44" />
    <vehicle id="SW_71" type="typeTurn" route="SW" depart="44" />
    <vehicle id="NS_72" type="typeStraight" route="NS" depart="46" />
    <vehicle id="NE_73" type="typeTurn" route="NE" depart="48" />
    <vehicle id="SN_74" type="typeStraight" route="SN" depart="48" />
    <vehicle id="SN_75" type="typeStraight" route="SN" depart="49" />
    <vehicle id="SW_76" type="typeTurn" route="SW" depart="49" />
    <vehicle id="NE_77" type="typeTurn" route="NE" depart="50" />
    <vehicle id="ES_78" type="typeTurn" route="ES" depart="51" />
    <vehicle id="NS_79" type="typeStraight" route="NS" depart="52" />
    <vehicle id="SW_80" type="typeTurn" route="SW" depart="52" />
    <vehicle id="NE_81" type="typeTurn" route="NE" depart="53" />
    <vehicle id="SW_82" type="typeTurn" route="SW" depart="53" />
    <vehicle id="NS_83" type="typeStraight" route="NS" depart="54" />
    <vehicle id="SW_84" type="typeTurn" route="SW" depart="54" />
    <vehicle id="SW_85" type="typeTurn" route="SW" depart="57" />
    <vehicle id="NE_86" type="typeTurn" route="NE" depart="58" />
    <vehicle id="SN_87" type="typeStraight" route="SN" depart="58" />
    <vehicle id="NE_88" type="typeTurn" route="NE" depart="59" />
    <vehicle id="NE_89" type="typeTurn" route="NE" depart="60" />
    <vehicle id="SN_90" type="typeStraight" route="SN" depart="61" />
    <vehicle id="SW_91" type="typeTurn" route="SW" depart="61" />
    <vehicle id="WN_92" type="typeTurn" route="WN" depart="61" />
    <vehicle id="NE_93" type="typeTurn" route="NE" depart="62" />
    <vehicle id="SW_94" type="typeTurn" route="SW" depart="62" />
    <vehicle id="WN_95" type="typeTurn" route="WN" depart="62" />
    <vehicle id="NS_96" type="typeStraight" route="NS" depart="63" />
    <vehicle id="SN_97" type="typeStraight" route="SN" depart="63" />
    <vehicle id="EW_98" type="typeStraight" route="EW" depart="64" />
    <vehicle id="NS_99" type="typeStraight" route="NS" depart="66" />
    <vehicle id="NE_100" type="typeTurn" route="NE" depart="66" />
    <vehicle id="SN_101" type="typeStraight" route="SN" depart="66" />
    <vehicle id="NS_102" type="typeStraight" route="NS" depart="67" />
    <vehicle id="SW_103" type="typeTurn" route="SW" depart="67" />
    <vehicle id="ES_104" type="typeTurn" route="ES" depart="67" />
    <vehicle id="NS_105" type="typeStraight" route="NS" depart="69" />
    <vehicle id="NE_106" type="typeTurn" route="NE" depart="73" />
    <vehicle id="WN_107" type="typeTurn" route="WN" depart="73" />
    <vehicle id="NS_108" type="typeStraight" route="NS" depart="74" />
    <vehicle id="EW_109" type="typeStraight" route="EW" depart="74" />
    <vehicle id="NS_110" type="typeStraight" route="NS" depart="75" />
    <vehicle id="NS_111" type="typeStraight" route="NS" depart="76" />
    <vehicle id="NE_112" type="typeTurn" route="NE" depart="76" />
    <vehicle id="SW_113" type="typeTurn" route="SW" depart="77" />
    <vehicle id="SN_114" type="typeStraight" route="SN" depart="78" />
    <vehicle id="SW_115" type="typeTurn" route="SW" depart="78" />
    <vehicle id="NS_116" type="typeStraight" route="NS" depart="79" />
    <vehicle id="NE_117" type="typeTurn" route="NE" depart="79" />
    <vehicle id="SN_118" type="typeStraight" route="SN" depart="79" />
    <vehicle id="SW_119" type="typeTurn" route="SW" depart="79" />
    <vehicle id="WN_120" type="typeTurn" route="WN" depart="79" />
    <vehicle id="SW_121" type="typeTurn" route="SW" depart="80" />
    <vehicle id="SN_122" type="typeStraight" route="SN" depart="81" />
    <vehicle id="SW_123" type="typeTurn" route="SW" depart="81" />
    <vehicle id="NS_124" type="typeStraight" route="NS" depart="82" />
    <vehicle id="SN_125" type="typeStraight" route="SN" depart="82" />
    <vehicle id="SW_126" type="typeTurn" route="SW" depart="82" />
    <vehicle id="SW_127" type="typeTurn" route="SW" depart="83" />
    <vehicle id="NE_128" type="typeTurn" route="NE" depart="85" />
    <vehicle id="SN_129" type="typeStraight" route="SN" depart="85" />
    <vehicle id="SW_130" type="typeTurn" route="SW" depart="85" />
    <vehicle id="WE_131" type="typeStraight" route="WE" depart="85" />
    <vehicle id="NS_132" type="typeStraight" route="NS" depart="86" />
    <vehicle id="NS_133" type="typeStraight" route="NS" depart="88" />
    <vehicle id="SW_134" type="typeTurn" route="SW" depart="89" />
    <vehicle id="WE_135" type="typeStraight" route="WE" depart="89" />
    <vehicle id="NS_136" type="typeStraight" route="NS" depart="90" />
    <vehicle id="NS_137" type="typeStraight" route="NS" depart="91" />
    <vehicle id="NE_138" type="typeTurn" route="NE" depart="92" />
    <vehicle id="NS_139" type="typeStraight" route="NS" depart="93" />
    <vehicle id="SW_140" type="typeTurn" route="SW" depart="95" />
    <vehicle id="NS_141" type="typeStraight" route="NS" depart="96" />
    <vehicle id="SW_142" type="typeTurn" route="SW" depart="96" />
    <vehicle id="SW_143" type="typeTurn" route="SW" depart="97" />
    <vehicle id="NS_144" type="typeStraight" route="NS" depart="98" />
    <vehicle id="SW_145" type="typeTurn" route="SW" depart="98" />
    <vehicle id="SN_146" type="typeStraight" route="SN" depart="99" />
    <vehicle id="NS_147" type="typeStraight" route="NS" depart="100" />
    <vehicle id="NE_148" type="typeTurn" route="NE" depart="100" />
    <vehicle id="NE_149" type="typeTurn" route="NE" depart="102" />
    <vehicle id="SN_150" type="typeStraight" route="SN" depart="103" />
    <vehicle id="SW_151" type="typeTurn" route="SW" depart="106" />
    <vehicle id="SN_152" type="typeStraight" route="SN" depart="107" />
    <vehicle id="NS_153" type="typeStraight" route="NS" depart="108" />
    <vehicle id="SN_154" type="typeStraight" route="SN" depart="108" />
    <vehicle id="NS_155" type="typeStraight" route="NS" depart="109" />
    <vehicle id="NE_156" type="typeTurn" route="NE" depart="109" />
    <vehicle id="NS_157" type="typeStraight" route="NS" depart="110" />
    <vehicle id="NE_158" type="typeTurn" route="NE" depart="110" />
    <vehicle id="SN_159" type="typeStraight" route="SN" depart="110" />
    <vehicle id="NE_160" type="typeTurn" route="NE" depart="112" />
    <vehicle id="NS_161" type="typeStraight" route="NS" depart="113" />
    <vehicle id="WE_162" type="typeStraight" route="WE" depart="113" />
    <vehicle id="NS_163" type="typeStraight" route="NS" depart="114" />
    <vehicle id="NE_164" type="typeTurn" route="NE" depart="116" />
    <vehicle id="SN_165" type="typeStraight" route="SN" depart="116" />
    <vehicle id="SW_166" type="typeTurn" route="SW" depart="117" />
    <vehicle id="NE_167" type="typeTurn" route="NE" depart="118" />
    <vehicle id="SW_168" type="typeTurn" route="SW" depart="118" />
    <vehicle id="WE_169" type="typeStraight" route="WE" depart="119" />
    <vehicle id="EW_170" type="typeStraight" route="EW" depart="120" />
    <vehicle id="SN_171" type="typeStraight" route="SN" depart="121" />
    <vehicle id="SW_172" type="typeTurn" route="SW" depart="121" />
    <vehicle id="NS_173" type="typeStraight" route="NS" depart="122" />
    <vehicle id="SW_174" type="typeTurn" route="SW" depart="124" />
    <vehicle id="NS_175" type="typeStraight" route="NS" depart="125" />
    <vehicle id="WN_176" type="typeTurn" route="WN" depart="126" />
    <vehicle id="NS_177" type="typeStraight" route="NS" depart="127" />
    <vehicle id="SN_178" type="typeStraight" route="SN" depart="127" />
    <vehicle id="NS_179" type="typeStraight" route="NS" depart="128" />
    <vehicle id="SN_180" type="typeStraight" route="SN" depart="128" />
    <vehicle id="NE_181" type="typeTurn" route="NE" depart="129" />
    <vehicle id="SN_182" type="typeStraight" route="SN" depart="129" />
    <vehicle id="NE_183" type="typeTurn" route="NE" depart="131" />
    <vehicle id="NS_184" type="typeStraight" route="NS" depart="133" />
    <vehicle id="NE_185" type="typeTurn" route="NE" depart="133" />
    <vehicle id="NE_186" type="typeTurn" route="NE" depart="134" />
    <vehicle id="NE_187" type="typeTurn" route="NE" depart="135" />
    <vehicle id="NE_188" type="typeTurn" route="NE" depart="136" />
    <vehicle id="SW_189" type="typeTurn" route="SW" depart="136" />
    <vehicle id="NE_190" type="typeTurn" route="NE" depart="139" />
    <vehicle id="SN_191" type="typeStraight" route="SN" depart="139" />
    <vehicle id="WN_192" type="typeTurn" route="WN" depart="140" />
    <vehicle id="NS_193" type="typeStraight" route="NS" depart="141" />
    <vehicle id="NE_194" type="typeTurn" route="NE" depart="141" />
    <vehicle id="WN_195" type="typeTurn" route="WN" depart="141" />
    <vehicle id="NE_196" type="typeTurn" route="NE" depart="142" />
    <vehicle id="SW_197" type="typeTurn" route="SW" depart="142" />
    <vehicle id="NE_198" type="typeTurn" route="NE" depart="144" />
    <vehicle id="NE_199" type="typeTurn" route="NE" depart="145" />
    <vehicle id="WN_200" type="typeTurn" route="WN" depart="145" />
    <vehicle id="NS_201" type="typeStraight" route="NS" depart="146" />
    <vehicle id="SN_202" type="typeStraight" route="SN" depart="146" />
    <vehicle id="SW_203" type="typeTurn" route="SW" depart="146" />
    <vehicle id="EW_204" type="typeStraight" route="EW" depart="146" />
    <vehicle id="NS_205" type="typeStraight" route="NS" depart="147" />
    <vehicle id="NS_206" type="typeStraight" route="NS" depart="148" />
    <vehicle id="NE_207" type="typeTurn" route="NE" depart="148" />
    <vehicle id="NS_208" type="typeStraight" route="NS" depart="149" />
    <vehicle id="NE_209" type="typeTurn" route="NE" depart="149" />
    <vehicle id="NE_210" type="typeTurn" route="NE" depart="150" />
    <vehicle id="NS_211" type="typeStraight" route="NS" depart="151" />
    <vehicle id="SN_212" type="typeStraight" route="SN" depart="151" />
    <vehicle id="NE_213" type="typeTurn" route="NE" depart="152" />
    <vehicle id="SN_214" type="typeStraight" route="SN" depart="152" />
    <vehicle id="SW_215" type="typeTurn" route="SW" depart="152" />
    <vehicle id="SW_216" type="typeTurn" route="SW" depart="154" />
    <vehicle id="NS_217" type="typeStraight" route="NS" depart="155" />
    <vehicle id="SW_218" type="typeTurn" route="SW" depart="158" />
    <vehicle id="NS_219" type="typeStraight" route="NS" depart="159" />
    <vehicle id="SN_220" type="typeStraight" route="SN" depart="159" />
    <vehicle id="NS_221" type="typeStraight" route="NS" depart="160" />
    <vehicle id="NE_222" type="typeTurn" route="NE" depart="160" />
    <vehicle id="SW_223" type="typeTurn" route="SW" depart="160" />
    <vehicle id="SN_224" type="typeStraight" route="SN" depart="161" />
    <vehicle id="SN_225" type="typeStraight" route="SN" depart="164" />
    <vehicle id="SW_226" type="typeTurn" route="SW" depart="164" />
    <vehicle id="SN_227" type="typeStraight" route="SN" depart="165" />
    <vehicle id="SW_228" type="typeTurn" route="SW" depart="166" />
    <vehicle id="NE_229" type="typeTurn" route="NE" depart="167" />
    <vehicle id="SW_230" type="typeTurn" route="SW" depart="169" />
    <vehicle id="NS_231" type="typeStraight" route="NS" depart="170" />
    <vehicle id="SW_232" type="typeTurn" route="SW" depart="170" />
    <vehicle id="SN_233" type="typeStraight" route="SN" depart="171" />
    <vehicle id="WN_234" type="typeTurn" route="WN" depart="171" />
    <vehicle id="NS_235" type="typeStraight" route="NS" depart="172" />
    <vehicle id="SW_236" type="typeTurn" route="SW" depart="172" />
    <vehicle id="NS_237" type="typeStraight" route="NS" depart="173" />
    <vehicle id="NE_238" type="typeTurn" route="NE" depart="173" />
    <vehicle id="ES_239" type="typeTurn" route="ES" depart="173" />
    <vehicle id="NS_240" type="typeStraight" route="NS" depart="174" />
    <vehicle id="NE_241" type="typeTurn" route="NE" depart="174" />
    <vehicle id="NE_242" type="typeTurn" route="NE" depart="175" />
    <vehicle id="NS_243" type="typeStraight" route="NS" depart="176" />
    <vehicle id="SN_244" type="typeStraight" route="SN" depart="176" />
    <vehicle id="SW_245" type="typeTurn" route="SW" depart="176" />
    <vehicle id="NE_246" type="typeTurn" route="NE" depart="177" />
    <vehicle id="SW_247" type="typeTurn" route="SW" depart="177" />
    <vehicle id="WN_248" type="typeTurn" route="WN" depart="178" />
    <vehicle id="WN_249" type="typeTurn" route="WN" depart="179" />
    <vehicle id="NS_250" type="typeStraight" route="NS" depart="180" />
    <vehicle id="NE_251" type="typeTurn" route="NE" depart="181" />
    <vehicle id="SN_252" type="typeStraight" route="SN" depart="181" />
    <vehicle id="SW_253" type="typeTurn" route="SW" depart="181" />
    <vehicle id="WE_254" type="typeStraight" route="WE" depart="181" />
    <vehicle id="NE_255" type="typeTurn" route="NE" depart="182" />
    <vehicle id="SW_256" type="typeTurn" route="SW" depart="182" />
    <vehicle id="NS_257" type="typeStraight" route="NS" depart="183" />
    <vehicle id="SN_258" type="typeStraight" route="SN" depart="185" />
    <vehicle id="NE_259" type="typeTurn" route="NE" depart="186" />
    <vehicle id="NS_260" type="typeStraight" route="NS" depart="187" />
    <vehicle id="NE_261" type="typeTurn" route="NE" depart="188" />
    <vehicle id="SN_262" type="typeStraight" route="SN" depart="188" />
    <vehicle id="NS_263" type="typeStraight" route="NS" depart="190" />
    <vehicle id="NE_264" type="typeTurn" route="NE" depart="190" />
    <vehicle id="SN_265" type="typeStraight" route="SN" depart="191" />
    <vehicle id="SN_266" type="typeStraight" route="SN" depart="192" />
    <vehicle id="NS_267" type="typeStraight" route="NS" depart="194" />
    <vehicle id="NE_268" type="typeTurn" route="NE" depart="194" />
    <vehicle id="SN_269" type="typeStraight" route="SN" depart="194" />
    <vehicle id="WE_270" type="typeStraight" route="WE" depart="194" />
    <vehicle id="SN_271" type="typeStraight" route="SN" depart="195" />
    <vehicle id="NE_272" type="typeTurn" route="NE" depart="196" />
    <vehicle id="SN_273" type="typeStraight" route="SN" depart="197" />
    <vehicle id="NS_274" type="typeStraight" route="NS" depart="198" />
    <vehicle id="NE_275" type="typeTurn" route="NE" depart="198" />
    <vehicle id="NS_276" type="typeStraight" route="NS" depart="199" />
    <vehicle id="SW_277" type="typeTurn" route="SW" depart="199" />
    <vehicle id="NE_278" type="typeTurn" route="NE" depart="200" />
    <vehicle id="NS_279" type="typeStraight" route="NS" depart="201" />
    <vehicle id="NE_280" type="typeTurn" route="NE" depart="201" />
    <vehicle id="SN_281" type="typeStraight" route="SN" depart="202" />
    <vehicle id="NS_282" type="typeStraight" route="NS" depart="203" />
    <vehicle id="NE_283" type="typeTurn" route="NE" depart="203" />
    <vehicle id="SW_284" type="typeTurn" route="SW" depart="204" />
    <vehicle id="NS_285" type="typeStraight" route="NS" depart="205" />
    <vehicle id="NE_286" type="typeTurn" route="NE" depart="205" />
    <vehicle id="SN_287" type="typeStraight" route="SN" depart="205" />
    <vehicle id="SW_288" type="typeTurn" route="SW" depart="205" />
    <vehicle id="NS_289" type="typeStraight" route="NS" depart="206" />
    <vehicle id="NE_290" type="typeTurn" route="NE" depart="207" />
    <vehicle id="SN_291" type="typeStraight" route="SN" depart="210" />
    <vehicle id="ES_292" type="typeTurn" route="ES" depart="211" />
    <vehicle id="NS_293" type="typeStraight" route="NS" depart="212" />
    <vehicle id="NS_294" type="typeStraight" route="NS" depart="213" />
    <vehicle id="SW_295" type="typeTurn" route="SW" depart="213" />
    <vehicle id="NS_296" type="typeStraight" route="NS" depart="214" />
    <vehicle id="NE_297" type="typeTurn" route="NE" depart="215" />
    <vehicle id="NE_298" type="typeTurn" route="NE" depart="216" />
    <vehicle id="ES_299" type="typeTurn" route="ES" depart="216" />
    <vehicle id="NE_300" type="typeTurn" route="NE" depart="217" />
    <vehicle id="SN_301" type="typeStraight" route="SN" depart="217" />
    <vehicle id="SW_302" type="typeTurn" route="SW" depart="218" />
    <vehicle id="SN_303" type="typeStraight" route="SN" depart="219" />
    <vehicle id="SW_304" type="typeTurn" route="SW" depart="220" />
    <vehicle id="NS_305" type="typeStraight" route="NS" depart="221" />
    <vehicle id="NE_306" type="typeTurn" route="NE" depart="221" />
    <vehicle id="SN_307" type="typeStraight" route="SN" depart="221" />
    <vehicle id="NS_308" type="typeStraight" route="NS" depart="222" />
    <vehicle id="NE_309" type="typeTurn" route="NE" depart="222" />
    <vehicle id="NS_310" type="typeStraight" route="NS" depart="223" />
    <vehicle id="NE_311" type="typeTurn" route="NE" depart="223" />
    <vehicle id="SW_312" type="typeTurn" route="SW" depart="224" />
    <vehicle id="SN_313" type="typeStraight" route="SN" depart="225" />
    <vehicle id="ES_314" type="typeTurn" route="ES" depart="225" />
    <vehicle id="SW_315" type="typeTurn" route="SW" depart="227" />
    <vehicle id="NE_316" type="typeTurn" route="NE" depart="228" />
    <vehicle id="SW_317" type="typeTurn" route="SW" depart="228" />
    <vehicle id="WE_318" type="typeStraight" route="WE" depart="229" />
    <vehicle id="NS_319" type="typeStraight" route="NS" depart="230" />
    <vehicle id="NS_320" type="typeStraight" route="NS" depart="231" />
    <vehicle id="NE_321" type="typeTurn" route="NE" depart="231" />
    <vehicle id="SW_322" type="typeTurn" route="SW" depart="231" />
    <vehicle id="NE_323" type="typeTurn" route="NE" depart="232" />
    <vehicle id="NS_324" type="typeStraight" route="NS" depart="233" />
    <vehicle id="NE_325" type="typeTurn" route="NE" depart="233" />
    <vehicle id="SW_326" type="typeTurn" route="SW" depart="233" />
    <vehicle id="SN_327" type="typeStraight" route="SN" depart="234" />
    <vehicle id="NE_328" type="typeTurn" route="NE" depart="236" />
    <vehicle id="SN_329" type="typeStraight" route="SN" depart="236" />
    <vehicle id="SW_330" type="typeTurn" route="SW" depart="236" />
    <vehicle id="SW_331" type="typeTurn" route="SW" depart="237" />
    <vehicle id="SN_332" type="typeStraight" route="SN" depart="238" />
    <vehicle id="NS_333" type="typeStraight" route="NS" depart="239" />
    <vehicle id="SW_334" type="typeTurn" route="SW" depart="239" />
    <vehicle id="WE_335" type="typeStraight" route="WE" depart="241" />
    <vehicle id="NE_336" type="typeTurn" route="NE" depart="242" />
    <vehicle id="SW_337" type="typeTurn" route="SW" depart="242" />
    <vehicle id="NS_338" type="typeStraight" route="NS" depart="245" />
    <vehicle id="NE_339" type="typeTurn" route="NE" depart="245" />
    <vehicle id="SN_340" type="typeStraight" route="SN" depart="245" />
    <vehicle id="SW_341" type="typeTurn" route="SW" depart="245" />
    <vehicle id="NS_342" type="typeStraight" route="NS" depart="246" />
    <vehicle id="SN_343" type="typeStraight" route="SN" depart="246" />
    <vehicle id="SN_344" type="typeStraight" route="SN" depart="247" />
    <vehicle id="SW_345" type="typeTurn" route="SW" depart="247" />
    <vehicle id="WN_346" type="typeTurn" route="WN" depart="247" />
    <vehicle id="NS_347" type="typeStraight" route="NS" depart="248" />
    <vehicle id="SW_348" type="typeTurn" route="SW" depart="248" />
    <vehicle id="NS_349" type="typeStraight" route="NS" depart="249" />
    <vehicle id="NS_350" type="typeStraight" route="NS" depart="250" />
    <vehicle id="SN_351" type="typeStraight" route="SN" depart="250" />
    <vehicle id="NE_352" type="typeTurn" route="NE" depart="252" />
    <vehicle id="SW_353" type="typeTurn" route="SW" depart="254" />
    <vehicle id="SN_354" type="typeStraight" route="SN" depart="255" />
    <vehicle id="SN_355" type="typeStraight" route="SN" depart="256" />
    <vehicle id="NS_356" type="typeStraight" route="NS" depart="257" />
    <vehicle id="SN_357" type="typeStraight" route="SN" depart="257" />
    <vehicle id="NE_358" type="typeTurn" route="NE" depart="258" />
    <vehicle id="SN_359" type="typeStraight" route="SN" depart="260" />
    <vehicle id="NE_360" type="typeTurn" route="NE" depart="261" />
    <vehicle id="NS_361" type="typeStraight" route="NS" depart="262" />
    <vehicle id="ES_362" type="typeTurn" route="ES" depart="262" />
    <vehicle id="NS_363" type="typeStraight" route="NS" depart="264" />
    <vehicle id="NS_364" type="typeStraight" route="NS" depart="265" />
    <vehicle id="SN_365" type="typeStraight" route="SN" depart="265" />
    <vehicle id="EW_366" type="typeStraight" route="EW" depart="265" />
    <vehicle id="SW_367" type="typeTurn" route="SW" depart="266" />
    <vehicle id="NE_368" type="typeTurn" route="NE" depart="267" />
    <vehicle id="NS_369" type="typeStraight" route="NS" depart="269" />
    <vehicle id="NE_370" type="typeTurn" route="NE" depart="269" />
    <vehicle id="SN_371" type="typeStraight" route="SN" depart="269" />
    <vehicle id="NS_372" type="typeStraight" route="NS" depart="270" />
    <vehicle id="SN_373" type="typeStraight" route="SN" depart="270" />
    <vehicle id="SW_374" type="typeTurn" route="SW" depart="270" />
    <vehicle id="ES_375" type="typeTurn" route="ES" depart="270" />
    <vehicle id="NS_376" type="typeStraight" route="NS" depart="271" />
    <vehicle id="WE_377" type="typeStraight" route="WE" depart="271" />
    <vehicle id="NE_378" type="typeTurn" route="NE" depart="274" />
    <vehicle id="NE_379" type="typeTurn" route="NE" depart="275" />
    <vehicle id="SN_380" type="typeStraight" route="SN" depart="275" />
    <vehicle id="SN_381" type="typeStraight" route="SN" depart="276" />
    <vehicle id="WN_382" type="typeTurn" route="WN" depart="277" />
    <vehicle id="NS_383" type="typeStraight" route="NS" depart="278" />
    <vehicle id="NE_384" type="typeTurn" route="NE" depart="278" />
    <vehicle id="SN_385" type="typeStraight" route="SN" depart="278" />
    <vehicle id="EW_386" type="typeStraight" route="EW" depart="278" />
    <vehicle id="NS_387" type="typeStraight" route="NS" depart="279" />
    <vehicle id="SW_388" type="typeTurn" route="SW" depart="280" />
    <vehicle id="NS_389" type="typeStraight" route="NS" depart="281" />
    <vehicle id="NE_390" type="typeTurn" route="NE" depart="282" />
    <vehicle id="SN_391" type="typeStraight" route="SN" depart="282" />
    <vehicle id="NS_392" type="typeStraight" route="NS" depart="284" />
    <vehicle id="NS_393" type="typeStraight" route="NS" depart="285" />
    <vehicle id="NE_394" type="typeTurn" route="NE" depart="288" />
    <vehicle id="SW_395" type="typeTurn" route="SW" depart="290" />
    <vehicle id="SN_396" type="typeStraight" route="SN" depart="291" />
    <vehicle id="SW_397" type="typeTurn" route="SW" depart="291" />
    <vehicle id="EW_398" type="typeStraight" route="EW" depart="292" />
    <vehicle id="SN_399" type="typeStraight" route="SN" depart="293" />
    <vehicle id="SW_400" type="typeTurn" route="SW" depart="295" />
    <vehicle id="SN_401" type="typeStraight" route="SN" depart="296" />
    <vehicle id="ES_402" type="typeTurn" route="ES" depart="296" />
    <vehicle id="NE_403" type="typeTurn" route="NE" depart="297" />
    <vehicle id="NS_404" type="typeStraight" route="NS" depart="298" />
    <vehicle id="NE_405" type="typeTurn" route="NE" depart="298" />
    <vehicle id="SW_406" type="typeTurn" route="SW" depart="298" />
    <vehicle id="SN_407" type="typeStraight" route="SN" depart="300" />
    <vehicle id="NS_408" type="typeStraight" route="NS" depart="301" />
    <vehicle id="NS_409" type="typeStraight" route="NS" depart="303" />
    <vehicle id="SN_410" type="typeStraight" route="SN" depart="303" />
    <vehicle id="SW_411" type="typeTurn" route="SW" depart="303" />
    <vehicle id="WN_412" type="typeTurn" route="WN" depart="304" />
    <vehicle id="NS_413" type="typeStraight" route="NS" depart="305" />
    <vehicle id="SN_414" type="typeStraight" route="SN" depart="305" />
    <vehicle id="NS_415" type="typeStraight" route="NS" depart="306" />
    <vehicle id="WN_416" type="typeTurn" route="WN" depart="306" />
    <vehicle id="NE_417" type="typeTurn" route="NE" depart="307" />
    <vehicle id="SN_418" type="typeStraight" route="SN" depart="309" />
    <vehicle id="SW_419" type="typeTurn" route="SW" depart="309" />
    <vehicle id="NS_420" type="typeStraight" route="NS" depart="310" />
    <vehicle id="NE_421" type="typeTurn" route="NE" depart="311" />
    <vehicle id="NE_422" type="typeTurn" route="NE" depart="312" />