<routes>
        <vType id="typeStraight" accel="1" decel="4.5" sigma="0.5" length="5" minGap="2.5" maxSpeed="13.9" guiShape="passenger"/>
        <vType id="typeTurn" accel="1" decel="4.5" sigma="0.5" length="5" minGap="2.5" maxSpeed="13.9" guiShape="passenger"/>

        <route id="WE" edges="1i 2o" />
        <route id="EW" edges="2i 1o " />
        <route id="NS" edges="4i 3o " />
        <route id="SN" edges="3i 4o " />
        <route id="NE" edges="4i 2o" />
        <route id="ES" edges="2i 3o " />
        <route id="SW" edges="3i 1o " />
        <route id="WN" edges="1i 4o " />
    <vehicle id="EW_0" type="typeStraight" route="EW" depart="0" />
    <vehicle id="NS_1" type="typeStraight" route="NS" depart="0" />
    <vehicle id="SN_2" type="typeStraight" route="SN" depart="0" />
    <vehicle id="EW_3" type="typeStraight" route="EW" depart="1" />
    <vehicle id="NS_4" type="typeStraight" route="NS" depart="1" />
    <vehicle id="NE_5" type="typeTurn" route="NE" depart="1" />
    <vehicle id="WE_6" type="typeStraight" route="WE" depart="2" />
    <vehicle id="SN_7" type="typeStraight" route="SN" depart="2" />
    <vehicle id="EW_8" type="typeStraight" route="EW" depart="3" />
    <vehicle id="NS_9" type="typeStraight" route="NS" depart="3" />
    <vehicle id="SN_10" type="typeStraight" route="SN" depart="3" />
    <vehicle id="EW_11" type="typeStraight" route="EW" depart="5" />
    <vehicle id="NS_12" type="typeStraight" route="NS" depart="5" />
    <vehicle id="SN_13" type="typeStraight" route="SN" depart="5" />
    <vehicle id="SN_14" type="typeStraight" route="SN" depart="6" />
    <vehicle id="WE_15" type="typeStraight" route="WE" depart="7" />
    <vehicle id="NS_16" type="typeStraight" route="NS" depart="7" />
    <vehicle id="NS_17" type="typeStraight" route="NS" depart="8" />
    <vehicle id="SN_18" type="typeStraight" route="SN" depart="8" />
    <vehicle id="EW_19" type="typeStraight" route="EW" depart="9" />
    <vehicle id="EW_20" type="typeStraight" route="EW" depart="10" />
    <vehicle id="WE_21" type="typeStraight" route="WE" depart="11" />
    <vehicle id="EW_22" type="typeStraight" route="EW" depart="11" />
    <vehicle id="NS_23" type="typeStraight" route="NS" depart="11" />
    <vehicle id="NE_24" type="typeTurn" route="NE" depart="12" />
    <vehicle id="WE_25" type="typeStraight" route="WE" depart="13" />
    <vehicle id="NS_26" type="typeStraight" route="NS" depart="13" />
    <vehicle id="EW_27" type="typeStraight" route="EW" depart="14" />
    <vehicle id="NE_28" type="typeTurn" route="NE" depart="15" />
    <vehicle id="SW_29" type="typeTurn" route="SW" depart="15" />
    <vehicle id="NS_30" type="typeStraight" route="NS" depart="16" />
    <vehicle id="SN_31" type="typeStraight" route="SN" depart="16" />
    <vehicle id="WE_32" type="typeStraight" route="WE" depart="17" />
    <vehicle id="SN_33" type="typeStraight" route="SN" depart="17" />
    <vehicle id="EW_34" type="typeStraight" route="EW" depart="18" />
    <vehicle id="NS_35" type="typeStraight" route="NS" depart="19" />
    <vehicle id="SN_36" type="typeStraight" route="SN" depart="19" />
    <vehicle id="WE_37" type="typeStraight" route="WE" depart="20" />
    <vehicle id="NS_38" type="typeStraight" route="NS" depart="20" />
    <vehicle id="WE_39" type="typeStraight" route="WE" depart="21" />
    <vehicle id="EW_40" type="typeStraight" route="EW" depart="21" />
    <vehicle id="WE_41" type="typeStraight" route="WE" depart="22" />
    <vehicle id="EW_42" type="typeStraight" route="EW" depart="23" />
    <vehicle id="SN_43" type="typeStraight" route="SN" depart="23" />
    <vehicle id="WE_44" type="typeStraight" route="WE" depart="24" />
    <vehicle id="SN_45" type="typeStraight" route="SN" depart="25" />
    <vehicle id="NS_46" type="typeStraight" route="NS" depart="26" />
    <vehicle id="NS_47" type="typeStraight" route="NS" depart="27" />
    <vehicle id="SN_48" type="typeStraight" route="SN" depart="27" />
    <vehicle id="WE_49" type="typeStraight" route="WE" depart="28" />
    <vehicle id="NS_50" type="typeStraight" route="NS" depart="29" />
    <vehicle id="SN_51" type="typeStraight" route="SN" depart="29" />
    <vehicle id="EW_52" type="typeStraight" route="EW" depart="31" />
    <vehicle id="NS_53" type="typeStraight" route="NS" depart="31" />
    <vehicle id="WE_54" type="typeStraight" route="WE" depart="32" />
    <vehicle id="EW_55" type="typeStraight" route="EW" depart="32" />
    <vehicle id="NS_56" type="typeStraight" route="NS" depart="32" />
    <vehicle id="ES_57" type="typeTurn" route="ES" depart="33" />
    <vehicle id="NS_58" type="typeStraight" route="NS" depart="34" />
    <vehicle id="SN_59" type="typeStraight" route="SN" depart="34" />
    <vehicle id="EW_60" type="typeStraight" route="EW" depart="35" />
    <vehicle id="SN_61" type="typeStraight" route="SN" depart="35" />
    <vehicle id="EW_62" type="typeStraight" route="EW" depart="36" />
    <vehicle id="NS_63" type="typeStraight" route="NS" depart="36" />
    <vehicle id="EW_64" type="typeStraight" route="EW" depart="37" />
    <vehicle id="NS_65" type="typeStraight" route="NS" depart="37" />
    <vehicle id="WE_66" type="typeStraight" route="WE" depart="38" />
    <vehicle id="EW_67" type="typeStraight" route="EW" depart="38" />
    <vehicle id="NS_68" type="typeStraight" route="NS" depart="38" />
    <vehicle id="WE_69" type="typeStraight" route="WE" depart="39" />
    <vehicle id="EW_70" type="typeStraight" route="EW" depart="39" />
    <vehicle id="NE_71" type="typeTurn" route="NE" depart="40" />
    <vehicle id="SN_72" type="typeStraight" route="SN" depart="41" />
    <vehicle id="WE_73" type="typeStraight" route="WE" depart="42" />
    <vehicle id="SN_74" type="typeStraight" route="SN" depart="42" />
    <vehicle id="SW_75" type="typeTurn" route="SW" depart="42" />
    <vehicle id="WE_76" type="typeStraight" route="WE" depart="43" />
    <vehicle id="SN_77" type="typeStraight" route="SN" depart="43" />
    <vehicle id="EW_78" type="typeStraight" route="EW" depart="44" />
    <vehicle id="SN_79" type="typeStraight" route="SN" depart="44" />
    <vehicle id="EW_80" type="typeStraight" route="EW" depart="45" />
    <vehicle id="WE_81" type="typeStraight" route="WE" depart="46" />
    <vehicle id="EW_82" type="typeStraight" route="EW" depart="47" />
    <vehicle id="NS_83" type="typeStraight" route="NS" depart="47" />
    <vehicle id="EW_84" type="typeStraight" route="EW" depart="48" />
    <vehicle id="NS_85" type="typeStraight" route="NS" depart="48" />
    <vehicle id="WE_86" type="typeStraight" route="WE" depart="49" />
    <vehicle id="NS_87" type="typeStraight" route="NS" depart="49" />
    <vehicle id="SN_88" type="typeStraight" route="SN" depart="49" />
    <vehicle id="EW_89" type="typeStraight" route="EW" depart="50" />
    <vehicle id="EW_90" type="typeStraight" route="EW" depart="51" />
    <vehicle id="WN_91" type="typeTurn" route="WN" depart="51" />
    <vehicle id="WE_92" type="typeStraight" route="WE" depart="52" />
    <vehicle id="SN_93" type="typeStraight" route="SN" depart="52" />
    <vehicle id="EW_94" type="typeStraight" route="EW" depart="53" />
    <vehicle id="SN_95" type="typeStraight" route="SN" depart="53" />
    <vehicle id="WE_96" type="typeStraight" route="WE" depart="54" />
    <vehicle id="SN_97" type="typeStraight" route="SN" depart="54" />
    <vehicle id="SN_98" type="typeStraight" route="SN" depart="57" />
    <vehicle id="EW_99" type="typeStraight" route="EW" depart="58" />
    <vehicle id="NS_100" type="typeStraight" route="NS" depart="58" />
    <vehicle id="EW_101" type="typeStraight" route="EW" depart="59" />
    <vehicle id="EW_102" type="typeStraight" route="EW" depart="60" />
    <vehicle id="NS_103" type="typeStraight" route="NS" depart="61" />
    <vehicle id="SN_104" type="typeStraight" route="SN" depart="61" />
    <vehicle id="ES_105" type="typeTurn" route="ES" depart="61" />
    <vehicle id="EW_106" type="typeStraight" route="EW" depart="62" />
    <vehicle id="SN_107" type="typeStraight" route="SN" depart="62" />
    <vehicle id="ES_108" type="typeTurn" route="ES" depart="62" />
    <vehicle id="WE_109" type="typeStraight" route="WE" depart="63" />
    <vehicle id="NS_110" type="typeStraight" route="NS" depart="63" />
    <vehicle id="SW_111" type="typeTurn" route="SW" depart="64" />
    <vehicle id="EW_112" type="typeStraight" route="EW" depart="65" />
    <vehicle id="WE_113" type="typeStraight" route="WE" depart="66" />
    <vehicle id="EW_114" type="typeStraight" route="EW" depart="66" />
    <vehicle id="NS_115" type="typeStraight" route="NS" depart="66" />
    <vehicle id="WE_116" type="typeStraight" route="WE" depart="67" />
    <vehicle id="SN_117" type="typeStraight" route="SN" depart="67" />
    <vehicle id="WN_118" type="typeTurn" route="WN" depart="67" />
    <vehicle id="WE_119" type="typeStraight" route="WE" depart="68" />
    <vehicle id="WE_120" type="typeStraight" route="WE" depart="69" />
    <vehicle id="SN_121" type="typeStraight" route="SN" depart="70" />
    <vehicle id="EW_122" type="typeStraight" route="EW" depart="73" />
    <vehicle id="ES_123" type="typeTurn" route="ES" depart="73" />
    <vehicle id="WE_124" type="typeStraight" route="WE" depart="74" />
    <vehicle id="NS_125" type="typeStraight" route="NS" depart="74" />
    <vehicle id="SW_126" type="typeTurn" route="SW" depart="74" />
    <vehicle id="WE_127" type="typeStraight" route="WE" depart="75" />
    <vehicle id="WE_128" type="typeStraight" route="WE" depart="76" />
    <vehicle id="EW_129" type="typeStraight" route="EW" depart="76" />
    <vehicle id="SN_130" type="typeStraight" route="SN" depart="76" />
    <vehicle id="EW_131" type="typeStraight" route="EW" depart="77" />
    <vehicle id="SN_132" type="typeStraight" route="SN" depart="77" />
    <vehicle id="NS_133" type="typeStraight" route="NS" depart="78" />
    <vehicle id="SN_134" type="typeStraight" route="SN" depart="78" />
    <vehicle id="WE_135" type="typeStraight" route="WE" depart="79" />
    <vehicle id="EW_136" type="typeStraight" route="EW" depart="79" />
    <vehicle id="NS_137" type="typeStraight" route="NS" depart="79" />
    <vehicle id="SN_138" type="typeStraight" route="SN" depart="79" />
    <vehicle id="ES_139" type="typeTurn" route="ES" depart="79" />
    <vehicle id="SN_140" type="typeStraight" route="SN" depart="80" />
    <vehicle id="NS_141" type="typeStraight" route="NS" depart="81" />
    <vehicle id="SN_142" type="typeStraight" route="SN" depart="81" />
    <vehicle id="WE_143" type="typeStraight" route="WE" depart="82" />
    <vehicle id="NS_144" type="typeStraight" route="NS" depart="82" />
    <vehicle id="SN_145" type="typeStraight" route="SN" depart="82" />
    <vehicle id="SN_146" type="typeStraight" route="SN" depart="83" />
    <vehicle id="EW_147" type="typeStraight" route="EW" depart="84" />
    <vehicle id="EW_148" type="typeStraight" route="EW" depart="85" />
    <vehicle id="NS_149" type="typeStraight" route="NS" depart="85" />
    <vehicle id="SN_150" type="typeStraight" route="SN" depart="85" />
    <vehicle id="NE_151" type="typeTurn" route="NE" depart="85" />
    <vehicle id="WE_152" type="typeStraight" route="WE" depart="86" />
    <vehicle id="WE_153" type="typeStraight" route="WE" depart="88" />
    <vehicle id="EW_154" type="typeStraight" route="EW" depart="88" />
    <vehicle id="SN_155" type="typeStraight" route="SN" depart="89" />
    <vehicle id="NE_156" type="typeTurn" route="NE" depart="89" />
    <vehicle id="WE_157" type="typeStraight" route="WE" depart="90" />
    <vehicle id="WE_158" type="typeStraight" route="WE" depart="91" />
    <vehicle id="EW_159" type="typeStraight" route="EW" depart="92" />
    <vehicle id="NS_160" type="typeStraight" route="NS" depart="92" />
    <vehicle id="SN_161" type="typeStraight" route="SN" depart="92" />
    <vehicle id="WE_162" type="typeStraight" route="WE" depart="93" />
    <vehicle id="SN_163" type="typeStraight" route="SN" depart="95" />
    <vehicle id="WE_164" type="typeStraight" route="WE" depart="96" />
    <vehicle id="SN_165" type="typeStraight" route="SN" depart="96" />
    <vehicle id="SN_166" type="typeStraight" route="SN" depart="97" />
    <vehicle id="WE_167" type="typeStraight" route="WE" depart="98" />
    <vehicle id="SN_168" type="typeStraight" route="SN" depart="98" />
    <vehicle id="NS_169" type="typeStraight" route="NS" depart="99" />
    <vehicle id="WE_170" type="typeStraight" route="WE" depart="100" />
    <vehicle id="EW_171" type="typeStraight" route="EW" depart="100" />
    <vehicle id="SN_172" type="typeStraight" route="SN" depart="101" />
    <vehicle id="EW_173" type="typeStraight" route="EW" depart="102" />
    <vehicle id="NS_174" type="typeStraight" route="NS" depart="103" />
    <vehicle id="WE_175" type="typeStraight" route="WE" depart="105" />
    <vehicle id="SN_176" type="typeStraight" route="SN" depart="106" />
    <vehicle id="NS_177" type="typeStraight" route="NS" depart="107" />
    <vehicle id="WE_178" type="typeStraight" route="WE" depart="108" />
    <vehicle id="NS_179" type="typeStraight" route="NS" depart="108" />
    <vehicle id="WE_180" type="typeStraight" route="WE" depart="109" />
    <vehicle id="EW_181" type="typeStraight" route="EW" depart="109" />
    <vehicle id="WE_182" type="typeStraight" route="WE" depart="110" />
    <vehicle id="EW_183" type="typeStraight" route="EW" depart="110" />
    <vehicle id="NS_184" type="typeStraight" route="NS" depart="110" />
    <vehicle id="WE_185" type="typeStraight" route="WE" depart="111" />
    <vehicle id="EW_186" type="typeStraight" route="EW" depart="112" />
    <vehicle id="WE_187" type="typeStraight" route="WE" depart="113" />
    <vehicle id="NE_188" type="typeTurn" route="NE" depart="113" />
    <vehicle id="WE_189" type="typeStraight" route="WE" depart="114" />
    <vehicle id="EW_190" type="typeStraight" route="EW" depart="116" />
    <vehicle id="NS_191" type="typeStraight" route="NS" depart="116" />
    <vehicle id="SN_192" type="typeStraight" route="SN" depart="117" />
    <vehicle id="WE_193" type="typeStraight" route="WE" depart="118" />
    <vehicle id="EW_194" type="typeStraight" route="EW" depart="118" />
    <vehicle id="SN_195" type="typeStraight" route="SN" depart="118" />
    <vehicle id="NE_196" type="typeTurn" route="NE" depart="119" />
    <vehicle id="SW_197" type="typeTurn" route="SW" depart="120" />
    <vehicle id="NS_198" type="typeStraight" route="NS" depart="121" />
    <vehicle id="SN_199" type="typeStraight" route="SN" depart="121" />
    <vehicle id="WE_200" type="typeStraight" route="WE" depart="122" />
    <vehicle id="NS_201" type="typeStraight" route="NS" depart="122" />
    <vehicle id="SN_202" type="typeStraight" route="SN" depart="124" />
    <vehicle id="WE_203" type="typeStraight" route="WE" depart="125" />
    <vehicle id="ES_204" type="typeTurn" route="ES" depart="126" />
    <vehicle id="WE_205" type="typeStraight" route="WE" depart="127" />
    <vehicle id="NS_206" type="typeStraight" route="NS" depart="127" />
    <vehicle id="WE_207" type="typeStraight" route="WE" depart="128" />
    <vehicle id="NS_208" type="typeStraight" route="NS" depart="128" />
    <vehicle id="EW_209" type="typeStraight" route="EW" depart="129" />
    <vehicle id="NS_210" type="typeStraight" route="NS" depart="129" />
    <vehicle id="EW_211" type="typeStraight" route="EW" depart="131" />
    <vehicle id="WE_212" type="typeStraight" route="WE" depart="133" />
    <vehicle id="EW_213" type="typeStraight" route="EW" depart="133" />
    <vehicle id="EW_214" type="typeStraight" route="EW" depart="134" />
    <vehicle id="EW_215" type="typeStraight" route="EW" depart="135" />
    <vehicle id="NS_216" type="typeStraight" route="NS" depart="135" />
    <vehicle id="EW_217" type="typeStraight" route="EW" depart="136" />
    <vehicle id="SN_218" type="typeStraight" route="SN" depart="136" />
    <vehicle id="EW_219" type="typeStraight" route="EW" depart="139" />
    <vehicle id="NS_220" type="typeStraight" route="NS" depart="139" />
    <vehicle id="ES_221" type="typeTurn" route="ES" depart="140" />
    <vehicle id="WE_222" type="typeStraight" route="WE" depart="141" />
    <vehicle id="EW_223" type="typeStraight" route="EW" depart="141" />
    <vehicle id="SN_224" type="typeStraight" route="SN" depart="141" />
    <vehicle id="ES_225" type="typeTurn" route="ES" depart="141" />
    <vehicle id="EW_226" type="typeStraight" route="EW" depart="142" />
    <vehicle id="SN_227" type="typeStraight" route="SN" depart="142" />
    <vehicle id="EW_228" type="typeStraight" route="EW" depart="144" />
    <vehicle id="EW_229" type="typeStraight" route="EW" depart="145" />
    <vehicle id="ES_230" type="typeTurn" route="ES" depart="145" />
    <vehicle id="WE_231" type="typeStraight" route="WE" depart="146" />
    <vehicle id="EW_232" type="typeStraight" route="EW" depart="146" />
    <vehicle id="NS_233" type="typeStraight" route="NS" depart="146" />
    <vehicle id="SN_234" type="typeStraight" route="SN" depart="146" />
    <vehicle id="SW_235" type="typeTurn" route="SW" depart="146" />
    <vehicle id="WE_236" type="typeStraight" route="WE" depart="147" />
    <vehicle id="WE_237" type="typeStraight" route="WE" depart="148" />
    <vehicle id="EW_238" type="typeStraight" route="EW" depart="148" />
    <vehicle id="WE_239" type="typeStraight" route="WE" depart="149" />
    <vehicle id="EW_240" type="typeStraight" route="EW" depart="149" />
    <vehicle id="NS_241" type="typeStraight" route="NS" depart="149" />
    <vehicle id="EW_242" type="typeStraight" route="EW" depart="150" />
    <vehicle id="WE_243" type="typeStraight" route="WE" depart="151" />
    <vehicle id="NS_244" type="typeStraight" route="NS" depart="151" />
    <vehicle id="EW_245" type="typeStraight" route="EW" depart="152" />
    <vehicle id="NS_246" type="typeStraight" route="NS" depart="152" />
    <vehicle id="SN_247" type="typeStraight" route="SN" depart="152" />
    <vehicle id="SN_248" type="typeStraight" route="SN" depart="154" />
    <vehicle id="WE_249" type="typeStraight" route="WE" depart="155" />
    <vehicle id="NS_250" type="typeStraight" route="NS" depart="155" />
    <vehicle id="NS_251" type="typeStraight" route="NS" depart="157" />
    <vehicle id="WE_252" type="typeStraight" route="WE" depart="158" />
    <vehicle id="SN_253" type="typeStraight" route="SN" depart="158" />
    <vehicle id="WE_254" type="typeStraight" route="WE" depart="159" />
    <vehicle id="NS_255" type="typeStraight" route="NS" depart="159" />
    <vehicle id="WE_256" type="typeStraight" route="WE" depart="160" />
    <vehicle id="EW_257" type="typeStraight" route="EW" depart="160" />
    <vehicle id="SN_258" type="typeStraight" route="SN" depart="160" />
    <vehicle id="WE_259" type="typeStraight" route="WE" depart="161" />
    <vehicle id="NS_260" type="typeStraight" route="NS" depart="161" />
    <vehicle id="SN_261" type="typeStraight" route="SN" depart="161" />
    <vehicle id="EW_262" type="typeStraight" route="EW" depart="162" />
    <vehicle id="NS_263" type="typeStraight" route="NS" depart="164" />
    <vehicle id="SN_264" type="typeStraight" route="SN" depart="164" />
    <vehicle id="NS_265" type="typeStraight" route="NS" depart="165" />
    <vehicle id="SN_266" type="typeStraight" route="SN" depart="165" />
    <vehicle id="SN_267" type="typeStraight" route="SN" depart="166" />
    <vehicle id="EW_268" type="typeStraight" route="EW" depart="167" />
    <vehicle id="SN_269" type="typeStraight" route="SN" depart="169" />
    <vehicle id="WE_270" type="typeStraight" route="WE" depart="170" />
    <vehicle id="SN_271" type="typeStraight" route="SN" depart="170" />
    <vehicle id="NS_272" type="typeStraight" route="NS" depart="171" />
    <vehicle id="ES_273" type="typeTurn" route="ES" depart="171" />
    <vehicle id="WE_274" type="typeStraight" route="WE" depart="172" />
    <vehicle id="SN_275" type="typeStraight" route="SN" depart="172" />
    <vehicle id="WE_276" type="typeStraight" route="WE" depart="173" />
    <vehicle id="EW_277" type="typeStraight" route="EW" depart="173" />
    <vehicle id="WN_278" type="typeTurn" route="WN" depart="173" />
    <vehicle id="WE_279" type="typeStraight" route="WE" depart="174" />
    <vehicle id="EW_280" type="typeStraight" route="EW" depart="174" />
    <vehicle id="WE_281" type="typeStraight" route="WE" depart="175" />
    <vehicle id="EW_282" type="typeStraight" route="EW" depart="175" />
    <vehicle id="WE_283" type="typeStraight" route="WE" depart="176" />
    <vehicle id="NS_284" type="typeStraight" route="NS" depart="176" />
    <vehicle id="SN_285" type="typeStraight" route="SN" depart="176" />
    <vehicle id="EW_286" type="typeStraight" route="EW" depart="177" />
    <vehicle id="SN_287" type="typeStraight" route="SN" depart="177" />
    <vehicle id="ES_288" type="typeTurn" route="ES" depart="178" />
    <vehicle id="ES_289" type="typeTurn" route="ES" depart="179" />
    <vehicle id="WE_290" type="typeStraight" route="WE" depart="180" />
    <vehicle id="EW_291" type="typeStraight" route="EW" depart="181" />
    <vehicle id="NS_292" type="typeStraight" route="NS" depart="181" />
    <vehicle id="SN_293" type="typeStraight" route="SN" depart="181" />
    <vehicle id="NE_294" type="typeTurn" route="NE" depart="181" />
    <vehicle id="EW_295" type="typeStraight" route="EW" depart="182" />
    <vehicle id="SN_296" type="typeStraight" route="SN" depart="182" />
    <vehicle id="WE_297" type="typeStraight" route="WE" depart="183" />
    <vehicle id="EW_298" type="typeStraight" route="EW" depart="185" />
    <vehicle id="NS_299" type="typeStraight" route="NS" depart="185" />
    <vehicle id="EW_300" type="typeStraight" route="EW" depart="186" />
    <vehicle id="WE_301" type="typeStraight" route="WE" depart="187" />
    <vehicle id="EW_302" type="typeStraight" route="EW" depart="188" />
    <vehicle id="NS_303" type="typeStraight" route="NS" depart="188" />
    <vehicle id="WE_304" type="typeStraight" route="WE" depart="190" />
    <vehicle id="EW_305" type="typeStraight" route="EW" depart="190" />
    <vehicle id="NS_306" type="typeStraight" route="NS" depart="191" />
    <vehicle id="NS_307" type="typeStraight" route="NS" depart="192" />
    <vehicle id="WE_308" type="typeStraight" route="WE" depart="194" />
    <vehicle id="EW_309" type="typeStraight" route="EW" depart="194" />
    <vehicle id="NS_310" type="typeStraight" route="NS" depart="194" />
    <vehicle id="NE_311" type="typeTurn" route="NE" depart="194" />
    <vehicle id="NS_312" type="typeStraight" route="NS" depart="195" />
    <vehicle id="SN_313" type="typeStraight" route="SN" depart="195" />
    <vehicle id="EW_314" type="typeStraight" route="EW" depart="196" />
    <vehicle id="NS_315" type="typeStraight" route="NS" depart="197" />
    <vehicle id="WE_316" type="typeStraight" route="WE" depart="198" />
    <vehicle id="EW_317" type="typeStraight" route="EW" depart="198" />
    <vehicle id="NS_318" type="typeStraight" route="NS" depart="198" />
    <vehicle id="WE_319" type="typeStraight" route="WE" depart="199" />
    <vehicle id="SN_320" type="typeStraight" route="SN" depart="199" />
    <vehicle id="EW_321" type="typeStraight" route="EW" depart="200" />
    <vehicle id="WE_322" type="typeStraight" route="WE" depart="201" />
    <vehicle id="EW_323" type="typeStraight" route="EW" depart="201" />
    <vehicle id="NS_324" type="typeStraight" route="NS" depart="202" />
    <vehicle id="WE_325" type="typeStraight" route="WE" depart="203" />
    <vehicle id="EW_326" type="typeStraight" route="EW" depart="203" />
    <vehicle id="SN_327" type="typeStraight" route="SN" depart="204" />
    <vehicle id="WE_328" type="typeStraight" route="WE" depart="205" />
    <vehicle id="EW_329" type="typeStraight" route="EW" depart="205" />
    <vehicle id="NS_330" type="typeStraight" route="NS" depart="205" />
    <vehicle id="SN_331" type="typeStraight" route="SN" depart="205" />
    <vehicle id="WE_332" type="typeStraight" route="WE" depart="206" />
    <vehicle id="EW_333" type="typeStraight" route="EW" depart="206" />
    <vehicle id="SN_334" type="typeStraight" route="SN" depart="206" />
    <vehicle id="WE_335" type="typeStraight" route="WE" depart="207" />
    <vehicle id="EW_336" type="typeStraight" route="EW" depart="207" />
    <vehicle id="NS_337" type="typeStraight" route="NS" depart="210" />
    <vehicle id="EW_338" type="typeStraight" route="EW" depart="211" />
    <vehicle id="WN_339" type="typeTurn" route="WN" depart="211" />
    <vehicle id="WE_340" type="typeStraight" route="WE" depart="212" />
    <vehicle id="EW_341" type="typeStraight" route="EW" depart="212" />
    <vehicle id="WE_342" type="typeStraight" route="WE" depart="213" />
    <vehicle id="SN_343" type="typeStraight" route="SN" depart="213" />
    <vehicle id="WE_344" type="typeStraight" route="WE" depart="214" />
    <vehicle id="EW_345" type="typeStraight" route="EW" depart="215" />
    <vehicle id="EW_346" type="typeStraight" route="EW" depart="216" />
    <vehicle id="WN_347" type="typeTurn" route="WN" depart="216" />
    <vehicle id="EW_348" type="typeStraight" route="EW" depart="217" />
    <vehicle id="NS_349" type="typeStraight" route="NS" depart="217" />
    <vehicle id="SN_350" type="typeStraight" route="SN" depart="217" />
    <vehicle id="SN_351" type="typeStraight" route="SN" depart="218" />
    <vehicle id="EW_352" type="typeStraight" route="EW" depart="219" />
    <vehicle id="NS_353" type="typeStraight" route="NS" depart="219" />
    <vehicle id="SN_354" type="typeStraight" route="SN" depart="220" />
    <vehicle id="WE_355" type="typeStraight" route="WE" depart="221" />
    <vehicle id="EW_356" type="typeStraight" route="EW" depart="221" />
    <vehicle id="NS_357" type="typeStraight" route="NS" depart="221" />
    <vehicle id="WE_358" type="typeStraight" route="WE" depart="222" />
    <vehicle id="EW_359" type="typeStraight" route="EW" depart="222" />
    <vehicle id="WE_360" type="typeStraight" route="WE" depart="223" />
    <vehicle id="EW_361" type="typeStraight" route="EW" depart="223" />
    <vehicle id="SN_362" type="typeStraight" route="SN" depart="223" />
    <vehicle id="SN_363" type="typeStraight" route="SN" depart="224" />
    <vehicle id="NS_364" type="typeStraight" route="NS" depart="225" />
    <vehicle id="WN_365" type="typeTurn" route="WN" depart="225" />
    <vehicle id="WE_366" type="typeStraight" route="WE" depart="227" />
    <vehicle id="SN_367" type="typeStraight" route="SN" depart="227" />
    <vehicle id="EW_368" type="typeStraight" route="EW" depart="228" />
    <vehicle id="SN_369" type="typeStraight" route="SN" depart="228" />
    <vehicle id="NE_370" type="typeTurn" route="NE" depart="229" />
    <vehicle id="WE_371" type="typeStraight" route="WE" depart="230" />
    <vehicle id="WE_372" type="typeStraight" route="WE" depart="231" />
    <vehicle id="EW_373" type="typeStraight" route="EW" depart="231" />
    <vehicle id="SN_374" type="typeStraight" route="SN" depart="231" />
    <vehicle id="EW_375" type="typeStraight" route="EW" depart="232" />
    <vehicle id="WE_376" type="typeStraight" route="WE" depart="233" />
    <vehicle id="EW_377" type="typeStraight" route="EW" depart="233" />
    <vehicle id="NS_378" type="typeStraight" route="NS" depart="233" />
    <vehicle id="SN_379" type="typeStraight" route="SN" depart="233" />
    <vehicle id="WE_380" type="typeStraight" route="WE" depart="234" />
    <vehicle id="NS_381" type="typeStraight" route="NS" depart="234" />
    <vehicle id="EW_382" type="typeStraight" route="EW" depart="236" />
    <vehicle id="NS_383" type="typeStraight" route="NS" depart="236" />
    <vehicle id="SN_384" type="typeStraight" route="SN" depart="236" />
    <vehicle id="SN_385" type="typeStraight" route="SN" depart="237" />
    <vehicle id="NS_386" type="typeStraight" route="NS" depart="238" />
    <vehicle id="WE_387" type="typeStraight" route="WE" depart="239" />
    <vehicle id="EW_388" type="typeStraight" route="EW" depart="239" />
    <vehicle id="SN_389" type="typeStraight" route="SN" depart="239" />
    <vehicle id="NE_390" type="typeTurn" route="NE" depart="241" />
    <vehicle id="EW_391" type="typeStraight" route="EW" depart="242" />
    <vehicle id="SN_392" type="typeStraight" route="SN" depart="242" />
    <vehicle id="SN_393" type="typeStraight" route="SN" depart="244" />
    <vehicle id="WE_394" type="typeStraight" route="WE" depart="245" />
    <vehicle id="EW_395" type="typeStraight" route="EW" depart="245" />
    <vehicle id="NS_396" type="typeStraight" route="NS" depart="245" />
    <vehicle id="SN_397" type="typeStraight" route="SN" depart="245" />
    <vehicle id="WE_398" type="typeStraight" route="WE" depart="246" />
    <vehicle id="EW_399" type="typeStraight" route="EW" depart="246" />
    <vehicle id="NS_400" type="typeStraight" route="NS" depart="246" />
    <vehicle id="NS_401" type="typeStraight" route="NS" depart="247" />
    <vehicle id="SN_402" type="typeStraight" route="SN" depart="247" />
    <vehicle id="ES_403" type="typeTurn" route="ES" depart="247" />
    <vehicle id="WE_404" type="typeStraight" route="WE" depart="248" />
    <vehicle id="SN_405" type="typeStraight" route="SN" depart="248" />
    <vehicle id="WE_406" type="typeStraight" route="WE" depart="249" />
    <vehicle id="SN_407" type="typeStraight" route="SN" depart="249" />
    <vehicle id="WE_408" type="typeStraight" route="WE" depart="250" />
    <vehicle id="NS_409" type="typeStraight" route="NS" depart="250" />
    <vehicle id="SN_410" type="typeStraight" route="SN" depart="250" />
    <vehicle id="EW_411" type="typeStraight" route="EW" depart="252" />
    <vehicle id="SN_412" type="typeStraight" route="SN" depart="254" />
    <vehicle id="NS_413" type="typeStraight" route="NS" depart="255" />