<routes>
        <vType id="typeStraight" accel="1" decel="4.5" sigma="0.5" length="5" minGap="2.5" maxSpeed="13.9" guiShape="passenger"/>
        <vType id="typeTurn" accel="1" decel="4.5" sigma="0.5" length="5" minGap="2.5" maxSpeed="13.9" guiShape="passenger"/>

        <route id="WE" edges="1i 2o" />
        <route id="EW" edges="2i 1o " />
        <route id="NS" edges="4i 3o " />
        <route id="SN" edges="3i 4o " />
        <route id="NE" edges="4i 2o" />
        <route id="ES" edges="2i 3o " />
        <route id="SW" edges="3i 1o " />
        <route id="WN" edges="1i 4o " />
    <vehicle id="NE_0" type="typeTurn" route="NE" depart="0" />
    <vehicle id="NE_1" type="typeTurn" route="NE" depart="1" />
    <vehicle id="WE_2" type="typeStraight" route="WE" depart="1" />
    <vehicle id="SW_3" type="typeTurn" route="SW" depart="2" />
    <vehicle id="NE_4" type="typeTurn" route="NE" depart="5" />
    <vehicle id="SW_5" type="typeTurn" route="SW" depart="8" />
    <vehicle id="NE_6" type="typeTurn" route="NE" depart="11" />
    <vehicle id="WE_7" type="typeStraight" route="WE" depart="12" />
    <vehicle id="WE_8" type="typeStraight" route="WE" depart="15" />
    <vehicle id="EW_9" type="typeStraight" route="EW" depart="15" />
    <vehicle id="WN_10" type="typeTurn" route="WN" depart="33" />
    <vehicle id="SN_11" type="typeStraight" route="SN" depart="36" />
    <vehicle id="NE_12" type="typeTurn" route="NE" depart="37" />
    <vehicle id="WE_13" type="typeStraight" route="WE" depart="40" />
    <vehicle id="EW_14" type="typeStraight" route="EW" depart="42" />
    <vehicle id="NS_15" type="typeStraight" route="NS" depart="46" />
    <vehicle id="SN_16" type="typeStraight" route="SN" depart="49" />
    <vehicle id="ES_17" type="typeTurn" route="ES" depart="51" />
    <vehicle id="SW_18" type="typeTurn" route="SW" depart="53" />
    <vehicle id="NE_19" type="typeTurn" route="NE" depart="60" />
    <vehicle id="WN_20" type="typeTurn" route="WN" depart="61" />
    <vehicle id="WN_21" type="typeTurn" route="WN" depart="62" />
    <vehicle id="NS_22" type="typeStraight" route="NS" depart="63" />
    <vehicle id="EW_23" type="typeStraight" route="EW" depart="64" />
    <vehicle id="NS_24" type="typeStraight" route="NS" depart="66" />
    <vehicle id="ES_25" type="typeTurn" route="ES" depart="67" />
    <vehicle id="WN_26" type="typeTurn" route="WN" depart="73" />
    <vehicle id="EW_27" type="typeStraight" route="EW" depart="74" />
    <vehicle id="WN_28" type="typeTurn" route="WN" depart="79" />
    <vehicle id="WE_29" type="typeStraight" route="WE" depart="85" />
    <vehicle id="WE_30" type="typeStraight" route="WE" depart="89" />
    <vehicle id="NS_31" type="typeStraight" route="NS" depart="91" />
    <vehicle id="NE_32" type="typeTurn" route="NE" depart="102" />
    <vehicle id="SN_33" type="typeStraight" route="SN" depart="103" />
    <vehicle id="SW_34" type="typeTurn" route="SW" depart="106" />
    <vehicle id="NS_35" type="typeStraight" route="NS" depart="108" />
    <vehicle id="SN_36" type="typeStraight" route="SN" depart="110" />
    <vehicle id="WE_37" type="typeStraight" route="WE" depart="113" />
    <vehicle id="WE_38" type="typeStraight" route="WE" depart="119" />
    <vehicle id="EW_39" type="typeStraight" route="EW" depart="120" />
    <vehicle id="SW_40" type="typeTurn" route="SW" depart="124" />
    <vehicle id="WN_41" type="typeTurn" route="WN" depart="126" />
    <vehicle id="SN_42" type="typeStraight" route="SN" depart="128" />
    <vehicle id="NE_43" type="typeTurn" route="NE" depart="129" />
    <vehicle id="SN_44" type="typeStraight" route="SN" depart="129" />
    <vehicle id="NE_45" type="typeTurn" route="NE" depart="131" />
    <vehicle id="WN_46" type="typeTurn" route="WN" depart="140" />
    <vehicle id="WN_47" type="typeTurn" route="WN" depart="141" />
    <vehicle id="SW_48" type="typeTurn" route="SW" depart="142" />
    <vehicle id="WN_49" type="typeTurn" route="WN" depart="145" />
    <vehicle id="NS_50" type="typeStraight" route="NS" depart="146" />
    <vehicle id="EW_51" type="typeStraight" route="EW" depart="146" />
    <vehicle id="NS_52" type="typeStraight" route="NS" depart="148" />
    <vehicle id="NE_53" type="typeTurn" route="NE" depart="148" />
    <vehicle id="NE_54" type="typeTurn" route="NE" depart="149" />
    <vehicle id="SN_55" type="typeStraight" route="SN" depart="165" />
    <vehicle id="WN_56" type="typeTurn" route="WN" depart="171" />
    <vehicle id="SW_57" type="typeTurn" route="SW" depart="172" />
    <vehicle id="ES_58" type="typeTurn" route="ES" depart="173" />
    <vehicle id="NE_59" type="typeTurn" route="NE" depart="175" />
    <vehicle id="NS_60" type="typeStraight" route="NS" depart="176" />
    <vehicle id="WN_61" type="typeTurn" route="WN" depart="178" />
    <vehicle id="WN_62" type="typeTurn" route="WN" depart="179" />
    <vehicle id="SN_63" type="typeStraight" route="SN" depart="181" />
    <vehicle id="WE_64" type="typeStraight" route="WE" depart="181" />
    <vehicle id="NE_65" type="typeTurn" route="NE" depart="186" />
    <vehicle id="NE_66" type="typeTurn" route="NE" depart="188" />
    <vehicle id="WE_67" type="typeStraight" route="WE" depart="194" />
    <vehicle id="NS_68" type="typeStraight" route="NS" depart="201" />
    <vehicle id="NE_69" type="typeTurn" route="NE" depart="201" />
    <vehicle id="NE_70" type="typeTurn" route="NE" depart="207" />
    <vehicle id="ES_71" type="typeTurn" route="ES" depart="211" />
    <vehicle id="NE_72" type="typeTurn" route="NE" depart="215" />
    <vehicle id="ES_73" type="typeTurn" route="ES" depart="216" />
    <vehicle id="SN_74" type="typeStraight" route="SN" depart="217" />
    <vehicle id="ES_75" type="typeTurn" route="ES" depart="225" />
    <vehicle id="WE_76" type="typeStraight" route="WE" depart="229" />
    <vehicle id="SN_77" type="typeStraight" route="SN" depart="234" />
    <vehicle id="WE_78" type="typeStraight" route="WE" depart="241" />
    <vehicle id="SW_79" type="typeTurn" route="SW" depart="242" />
    <vehicle id="NE_80" type="typeTurn" route="NE" depart="245" />
    <vehicle id="SN_81" type="typeStraight" route="SN" depart="245" />
    <vehicle id="SN_82" type="typeStraight" route="SN" depart="247" />
    <vehicle id="WN_83" type="typeTurn" route="WN" depart="247" />
    <vehicle id="NS_84" type="typeStraight" route="NS" depart="248" />
    <vehicle id="SN_85" type="typeStraight" route="SN" depart="256" />
    <vehicle id="ES_86" type="typeTurn" route="ES" depart="262" />
    <vehicle id="NS_87" type="typeStraight" route="NS" depart="264" />
    <vehicle id="NS_88" type="typeStraight" route="NS" depart="265" />
    <vehicle id="SN_89" type="typeStraight" route="SN" depart="265" />
    <vehicle id="EW_90" type="typeStraight" route="EW" depart="265" />
    <vehicle id="NE_91" type="typeTurn" route="NE" depart="269" />
    <vehicle id="SN_92" type="typeStraight" route="SN" depart="270" />
    <vehicle id="ES_93" type="typeTurn" route="ES" depart="270" />
    <vehicle id="WE_94" type="typeStraight" route="WE" depart="271" />
    <vehicle id="NE_95" type="typeTurn" route="NE" depart="275" />
    <vehicle id="WN_96" type="typeTurn" route="WN" depart="277" />
    <vehicle id="EW_97" type="typeStraight" route="EW" depart="278" />
    <vehicle id="SW_98" type="typeTurn" route="SW" depart="290" />
    <vehicle id="SN_99" type="typeStraight" route="SN" depart="291" />
    <vehicle id="EW_100" type="typeStraight" route="EW" depart="292" />
    <vehicle id="ES_101" type="typeTurn" route="ES" depart="296" />
    <vehicle id="SN_102" type="typeStraight" route="SN" depart="303" />
    <vehicle id="WN_103" type="typeTurn" route="WN" depart="304" />
    <vehicle id="WN_104" type="typeTurn" route="WN" depart="306" />
    <vehicle id="WE_105" type="typeStraight" route="WE" depart="314" />
    <vehicle id="NS_106" type="typeStraight" route="NS" depart="317" />
    <vehicle id="ES_107" type="typeTurn" route="ES" depart="317" />
    <vehicle id="SW_108" type="typeTurn" route="SW" depart="320" />
    <vehicle id="NS_109" type="typeStraight" route="NS" depart="321" />
    <vehicle id="SW_110" type="typeTurn" route="SW" depart="323" />
    <vehicle id="WN_111" type="typeTurn" route="WN" depart="329" />
    <vehicle id="NS_112" type="typeStraight" route="NS" depart="330" />
    <vehicle id="ES_113" type="typeTurn" route="ES" depart="335" />
    <vehicle id="NE_114" type="typeTurn" route="NE" depart="338" />
    <vehicle id="ES_115" type="typeTurn" route="ES" depart="341" />
    <vehicle id="WE_116" type="typeStraight" route="WE" depart="343" />
    <vehicle id="SW_117" type="typeTurn" route="SW" depart="344" />
    <vehicle id="ES_118" type="typeTurn" route="ES" depart="350" />
    <vehicle id="NE_119" type="typeTurn" route="NE" depart="352" />
    <vehicle id="NE_120" type="typeTurn" route="NE" depart="353" />
    <vehicle id="WE_121" type="typeStraight" route="WE" depart="354" />
    <vehicle id="WE_122" type="typeStraight" route="WE" depart="355" />
    <vehicle id="SN_123" type="typeStraight" route="SN" depart="356" />
    <vehicle id="NE_124" type="typeTurn" route="NE" depart="357" />
    <vehicle id="WN_125" type="typeTurn" route="WN" depart="363" />
    <vehicle id="WE_126" type="typeStraight" route="WE" depart="365" />
    <vehicle id="WE_127" type="typeStraight" route="WE" depart="366" />
    <vehicle id="ES_128" type="typeTurn" route="ES" depart="370" />
    <vehicle id="EW_129" type="typeStraight" route="EW" depart="373" />
    <vehicle id="SW_130" type="typeTurn" route="SW" depart="377" />
    <vehicle id="NE_131" type="typeTurn" route="NE" depart="379" />
    <vehicle id="SW_132" type="typeTurn" route="SW" depart="380" />
    <vehicle id="NE_133" type="typeTurn" route="NE" depart="391" />
    <vehicle id="EW_134" type="typeStraight" route="EW" depart="391" />
    <vehicle id="WN_135" type="typeTurn" route="WN" depart="392" />
    <vehicle id="SN_136" type="typeStraight" route="SN" depart="396" />
    <vehicle id="ES_137" type="typeTurn" route="ES" depart="397" />
    <vehicle id="WE_138" type="typeStraight" route="WE" depart="400" />
    <vehicle id="ES_139" type="typeTurn" route="ES" depart="400" />
    <vehicle id="SW_140" type="typeTurn" route="SW" depart="401" />
    <vehicle id="NS_141" type="typeStraight" route="NS" depart="407" />
    <vehicle id="NE_142" type="typeTurn" route="NE" depart="414" />
    <vehicle id="EW_143" type="typeStraight" route="EW" depart="415" />
    <vehicle id="NE_144" type="typeTurn" route="NE" depart="416" />
    <vehicle id="WN_145" type="typeTurn" route="WN" depart="420" />
    <vehicle id="NE_146" type="typeTurn" route="NE" depart="421" />
    <vehicle id="WN_147" type="typeTurn" route="WN" depart="421" />
    <vehicle id="NE_148" type="typeTurn" route="NE" depart="425" />
    <vehicle id="EW_149" type="typeStraight" route="EW" depart="425" />
    <vehicle id="ES_150" type="typeTurn" route="ES" depart="427" />
    <vehicle id="EW_151" type="typeStraight" route="EW" depart="428" />
    <vehicle id="WN_152" type="typeTurn" route="WN" depart="432" />
    <vehicle id="WN_153" type="typeTurn" route="WN" depart="433" />
    <vehicle id="WN_154" type="typeTurn" route="WN" depart="439" />
    <vehicle id="NS_155" type="typeStraight" route="NS" depart="443" />
    <vehicle id="NE_156" type="typeTurn" route="NE" depart="446" />
    <vehicle id="NS_157" type="typeStraight" route="NS" depart="453" />
    <vehicle id="WE_158" type="typeStraight" route="WE" depart="454" />
    <vehicle id="ES_159" type="typeTurn" route="ES" depart="456" />
    <vehicle id="NS_160" type="typeStraight" route="NS" depart="464" />
    <vehicle id="SW_161" type="typeTurn" route="SW" depart="466" />
    <vehicle id="SW_162" type="typeTurn" route="SW" depart="467" />
    <vehicle id="EW_163" type="typeStraight" route="EW" depart="470" />
    <vehicle id="NE_164" type="typeTurn" route="NE" depart="475" />
    <vehicle id="WE_165" type="typeStraight" route="WE" depart="480" />
    <vehicle id="SW_166" type="typeTurn" route="SW" depart="483" />
    <vehicle id="WN_167" type="typeTurn" route="WN" depart="483" />
    <vehicle id="SN_168" type="typeStraight" route="SN" depart="488" />
    <vehicle id="NS_169" type="typeStraight" route="NS" depart="489" />
    <vehicle id="NE_170" type="typeTurn" route="NE" depart="494" />
    <vehicle id="SN_171" type="typeStraight" route="SN" depart="494" />
    <vehicle id="EW_172" type="typeStraight" route="EW" depart="494" />
    <vehicle id="EW_173" type="typeStraight" route="EW" depart="495" />
    <vehicle id="WN_174" type="typeTurn" route="WN" depart="499" />
    <vehicle id="SN_175" type="typeStraight" route="SN" depart="501" />
    <vehicle id="NE_176" type="typeTurn" route="NE" depart="504" />
    <vehicle id="ES_177" type="typeTurn" route="ES" depart="508" />
    <vehicle id="ES_178" type="typeTurn" route="ES" depart="509" />
    <vehicle id="EW_179" type="typeStraight" route="EW" depart="511" />
    <vehicle id="SW_180" type="typeTurn" route="SW" depart="512" />
    <vehicle id="WN_181" type="typeTurn" route="WN" depart="512" />
    <vehicle id="EW_182" type="typeStraight" route="EW" depart="517" />
    <vehicle id="NS_183" type="typeStraight" route="NS" depart="519" />
    <vehicle id="ES_184" type="typeTurn" route="ES" depart="522" />
    <vehicle id="NS_185" type="typeStraight" route="NS" depart="526" />
    <vehicle id="WE_186" type="typeStraight" route="WE" depart="532" />
    <vehicle id="SW_187" type="typeTurn" route="SW" depart="537" />
    <vehicle id="EW_188" type="typeStraight" route="EW" depart="538" />
    <vehicle id="WE_189" type="typeStraight" route="WE" depart="540" />
    <vehicle id="EW_190" type="typeStraight" route="EW" depart="543" />
    <vehicle id="SW_191" type="typeTurn" route="SW" depart="544" />
    <vehicle id="ES_192" type="typeTurn" route="ES" depart="544" />
    <vehicle id="SW_193" type="typeTurn" route="SW" depart="545" />
    <vehicle id="ES_194" type="typeTurn" route="ES" depart="548" />
    <vehicle id="NS_195" type="typeStraight" route="NS" depart="549" />
    <vehicle id="NE_196" type="typeTurn" route="NE" depart="553" />
    <vehicle id="SW_197" type="typeTurn" route="SW" depart="554" />
    <vehicle id="SW_198" type="typeTurn" route="SW" depart="556" />
    <vehicle id="WE_199" type="typeStraight" route="WE" depart="556" />
    <vehicle id="NE_200" type="typeTurn" route="NE" depart="562" />
    <vehicle id="WN_201" type="typeTurn" route="WN" depart="562" />
    <vehicle id="SW_202" type="typeTurn" route="SW" depart="568" />
    <vehicle id="NE_203" type="typeTurn" route="NE" depart="575" />
    <vehicle id="NE_204" type="typeTurn" route="NE" depart="576" />
    <vehicle id="SN_205" type="typeStraight" route="SN" depart="580" />
    <vehicle id="EW_206" type="typeStraight" route="EW" depart="580" />
    <vehicle id="ES_207" type="typeTurn" route="ES" depart="582" />
    <vehicle id="ES_208" type="typeTurn" route="ES" depart="585" />
    <vehicle id="EW_209" type="typeStraight" route="EW" depart="586" />
    <vehicle id="SN_210" type="typeStraight" route="SN" depart="588" />
    <vehicle id="EW_211" type="typeStraight" route="EW" depart="588" />
    <vehicle id="NS_212" type="typeStraight" route="NS" depart="590" />
    <vehicle id="SW_213" type="typeTurn" route="SW" depart="590" />
    <vehicle id="SN_214" type="typeStraight" route="SN" depart="591" />
    <vehicle id="NS_215" type="typeStraight" route="NS" depart="592" />
    <vehicle id="EW_216" type="typeStraight" route="EW" depart="593" />
    <vehicle id="ES_217" type="typeTurn" route="ES" depart="595" />
    <vehicle id="WE_218" type="typeStraight" route="WE" depart="604" />
    <vehicle id="EW_219" type="typeStraight" route="EW" depart="604" />
    <vehicle id="WN_220" type="typeTurn" route="WN" depart="606" />
    <vehicle id="SN_221" type="typeStraight" route="SN" depart="608" />
    <vehicle id="SN_222" type="typeStraight" route="SN" depart="609" />
    <vehicle id="NE_223" type="typeTurn" route="NE" depart="617" />
    <vehicle id="EW_224" type="typeStraight" route="EW" depart="618" />
    <vehicle id="NE_225" type="typeTurn" route="NE" depart="619" />
    <vehicle id="ES_226" type="typeTurn" route="ES" depart="619" />
    <vehicle id="NE_227" type="typeTurn" route="NE" depart="626" />
    <vehicle id="SN_228" type="typeStraight" route="SN" depart="626" />
    <vehicle id="WE_229" type="typeStraight" route="WE" depart="627" />
    <vehicle id="SW_230" type="typeTurn" route="SW" depart="628" />
    <vehicle id="NS_231" type="typeStraight" route="NS" depart="629" />
    <vehicle id="WE_232" type="typeStraight" route="WE" depart="632" />
    <vehicle id="ES_233" type="typeTurn" route="ES" depart="633" />
    <vehicle id="WE_234" type="typeStraight" route="WE" depart="635" />
    <vehicle id="EW_235" type="typeStraight" route="EW" depart="637" />
    <vehicle id="WE_236" type="typeStraight" route="WE" depart="638" />
    <vehicle id="SW_237" type="typeTurn" route="SW" depart="640" />
    <vehicle id="NS_238" type="typeStraight" route="NS" depart="647" />
    <vehicle id="WE_239" type="typeStraight" route="WE" depart="653" />
    <vehicle id="WN_240" type="typeTurn" route="WN" depart="655" />
    <vehicle id="WE_241" type="typeStraight" route="WE" depart="659" />
    <vehicle id="ES_242" type="typeTurn" route="ES" depart="666" />
    <vehicle id="SW_243" type="typeTurn" route="SW" depart="669" />
    <vehicle id="SW_244" type="typeTurn" route="SW" depart="674" />
    <vehicle id="NE_245" type="typeTurn" route="NE" depart="675" />
    <vehicle id="NS_246" type="typeStraight" route="NS" depart="678" />
    <vehicle id="ES_247" type="typeTurn" route="ES" depart="678" />
    <vehicle id="WE_248" type="typeStraight" route="WE" depart="687" />
    <vehicle id="ES_249" type="typeTurn" route="ES" depart="689" />
    <vehicle id="WN_250" type="typeTurn" route="WN" depart="692" />
    <vehicle id="NS_251" type="typeStraight" route="NS" depart="693" />
    <vehicle id="SN_252" type="typeStraight" route="SN" depart="694" />
    <vehicle id="ES_253" type="typeTurn" route="ES" depart="694" />
    <vehicle id="SW_254" type="typeTurn" route="SW" depart="695" />
    <vehicle id="SW_255" type="typeTurn" route="SW" depart="699" />
    <vehicle id="NS_256" type="typeStraight" route="NS" depart="700" />
    <vehicle id="SN_257" type="typeStraight" route="SN" depart="700" />
    <vehicle id="NE_258" type="typeTurn" route="NE" depart="702" />
    <vehicle id="NS_259" type="typeStraight" route="NS" depart="703" />
    <vehicle id="SW_260" type="typeTurn" route="SW" depart="705" />
    <vehicle id="SN_261" type="typeStraight" route="SN" depart="706" />
    <vehicle id="SW_262" type="typeTurn" route="SW" depart="714" />
    <vehicle id="WN_263" type="typeTurn" route="WN" depart="714" />
    <vehicle id="NS_264" type="typeStraight" route="NS" depart="715" />
    <vehicle id="NS_265" type="typeStraight" route="NS" depart="716" />
    <vehicle id="WE_266" type="typeStraight" route="WE" depart="717" />
    <vehicle id="NE_267" type="typeTurn" route="NE" depart="719" />
    <vehicle id="ES_268" type="typeTurn" route="ES" depart="730" />
    <vehicle id="WE_269" type="typeStraight" route="WE" depart="732" />
    <vehicle id="SN_270" type="typeStraight" route="SN" depart="733" />
    <vehicle id="ES_271" type="typeTurn" route="ES" depart="734" />
    <vehicle id="WN_272" type="typeTurn" route="WN" depart="738" />
    <vehicle id="NS_273" type="typeStraight" route="NS" depart="745" />
    <vehicle id="EW_274" type="typeStraight" route="EW" depart="745" />
    <vehicle id="ES_275" type="typeTurn" route="ES" depart="745" />
    <vehicle id="WN_276" type="typeTurn" route="WN" depart="752" />
    <vehicle id="WE_277" type="typeStraight" route="WE" depart="756" />
    <vehicle id="SN_278" type="typeStraight" route="SN" depart="758" />
    <vehicle id="EW_279" type="typeStraight" route="EW" depart="761" />
    <vehicle id="SN_280" type="typeStraight" route="SN" depart="765" />
    <vehicle id="ES_281" type="typeTurn" route="ES" depart="774" />
    <vehicle id="EW_282" type="typeStraight" route="EW" depart="775" />
    <vehicle id="EW_283" type="typeStraight" route="EW" depart="778" />
    <vehicle id="ES_284" type="typeTurn" route="ES" depart="778" />
    <vehicle id="SW_285" type="typeTurn" route="SW" depart="779" />
    <vehicle id="SN_286" type="typeStraight" route="SN" depart="781" />
    <vehicle id="ES_287" type="typeTurn" route="ES" depart="784" />
    <vehicle id="NS_288" type="typeStraight" route="NS" depart="788" />
    <vehicle id="NS_289" type="typeStraight" route="NS" depart="793" />
    <vehicle id="SN_290" type="typeStraight" route="SN" depart="794" />
    <vehicle id="SW_291" type="typeTurn" route="SW" depart="800" />
    <vehicle id="SW_292" type="typeTurn" route="SW" depart="804" />
    <vehicle id="WN_293" type="typeTurn" route="WN" depart="806" />
    <vehicle id="NE_294" type="typeTurn" route="NE" depart="816" />
    <vehicle id="WE_295" type="typeStraight" route="WE" depart="818" />
    <vehicle id="EW_296" type="typeStraight" route="EW" depart="820" />
    <vehicle id="WN_297" type="typeTurn" route="WN" depart="823" />
    <vehicle id="SW_298" type="typeTurn" route="SW" depart="824" />
    <vehicle id="WE_299" type="typeStraight" route="WE" depart="827" />
    <vehicle id="SN_300" type="typeStraight" route="SN" depart="829" />
    <vehicle id="WE_301" type="typeStraight" route="WE" depart="830" />
    <vehicle id="SN_302" type="typeStraight" route="SN" depart="835" />
    <vehicle id="WN_303" type="typeTurn" route="WN" depart="837" />
    <vehicle id="ES_304" type="typeTurn" route="ES" depart="837" />
    <vehicle id="ES_305" type="typeTurn" route="ES" depart="841" />
    <vehicle id="NS_306" type="typeStraight" route="NS" depart="844" />
    <vehicle id="SN_307" type="typeStraight" route="SN" depart="844" />
    <vehicle id="ES_308" type="typeTurn" route="ES" depart="845" />
    <vehicle id="SW_309" type="typeTurn" route="SW" depart="847" />
    <vehicle id="ES_310" type="typeTurn" route="ES" depart="850" />
    <vehicle id="NS_311" type="typeStraight" route="NS" depart="855" />
    <vehicle id="NE_312" type="typeTurn" route="NE" depart="855" />
    <vehicle id="ES_313" type="typeTurn" route="ES" depart="855" />
    <vehicle id="NS_314" type="typeStraight" route="NS" depart="857" />
    <vehicle id="SN_315" type="typeStraight" route="SN" depart="859" />
    <vehicle id="NS_316" type="typeStraight" route="NS" depart="864" />
    <vehicle id="SN_317" type="typeStraight" route="SN" depart="864" />
    <vehicle id="SN_318" type="typeStraight" route="SN" depart="867" />
    <vehicle id="SN_319" type="typeStraight" route="SN" depart="869" />
    <vehicle id="EW_320" type="typeStraight" route="EW" depart="870" />
    <vehicle id="SN_321" type="typeStraight" route="SN" depart="872" />
    <vehicle id="SN_322" type="typeStraight" route="SN" depart="880" />
    <vehicle id="SW_323" type="typeTurn" route="SW" depart="881" />
    <vehicle id="NS_324" type="typeStraight" route="NS" depart="888" />
    <vehicle id="NE_325" type="typeTurn" route="NE" depart="889" />
    <vehicle id="SW_326" type="typeTurn" route="SW" depart="889" />
    <vehicle id="WE_327" type="typeStraight" route="WE" depart="891" />
    <vehicle id="EW_328" type="typeStraight" route="EW" depart="896" />
    <vehicle id="SW_329" type="typeTurn" route="SW" depart="897" />
    <vehicle id="WN_330" type="typeTurn" route="WN" depart="898" />
    <vehicle id="WE_331" type="typeStraight" route="WE" depart="901" />
    <vehicle id="ES_332" type="typeTurn" route="ES" depart="901" />
    <vehicle id="SW_333" type="typeTurn" route="SW" depart="903" />
    <vehicle id="EW_334" type="typeStraight" route="EW" depart="904" />
    <vehicle id="SW_335" type="typeTurn" route="SW" depart="905" />
    <vehicle id="EW_336" type="typeStraight" route="EW" depart="912" />
    <vehicle id="SN_337" type="typeStraight" route="SN" depart="913" />
    <vehicle id="NS_338" type="typeStraight" route="NS" depart="917" />
    <vehicle id="SW_339" type="typeTurn" route="SW" depart="919" />
    <vehicle id="ES_340" type="typeTurn" route="ES" depart="923" />
    <vehicle id="NS_341" type="typeStraight" route="NS" depart="927" />
    <vehicle id="SN_342" type="typeStraight" route="SN" depart="927" />
    <vehicle id="NS_343" type="typeStraight" route="NS" depart="929" />
    <vehicle id="EW_344" type="typeStraight" route="EW" depart="929" />
    <vehicle id="ES_345" type="typeTurn" route="ES" depart="929" />
    <vehicle id="ES_346" type="typeTurn" route="ES" depart="930" />
    <vehicle id="SN_347" type="typeStraight" route="SN" depart="931" />
    <vehicle id="SW_348" type="typeTurn" route="SW" depart="934" />
    <vehicle id="SW_349" type="typeTurn" route="SW" depart="938" />
    <vehicle id="ES_350" type="typeTurn" route="ES" depart="942" />
    <vehicle id="WN_351" type="typeTurn" route="WN" depart="944" />
    <vehicle id="EW_352" type="typeStraight" route="EW" depart="948" />
    <vehicle id="NS_353" type="typeStraight" route="NS" depart="950" />
    <vehicle id="EW_354" type="typeStraight" route="EW" depart="952" />
    <vehicle id="ES_355" type="typeTurn" route="ES" depart="956" />
    <vehicle id="NS_356" type="typeStraight" route="NS" depart="964" />
    <vehicle id="EW_357" type="typeStraight" route="EW" depart="965" />
    <vehicle id="NE_358" type="typeTurn" route="NE" depart="967" />
    <vehicle id="WN_359" type="typeTurn" route="WN" depart="968" />
    <vehicle id="EW_360" type="typeStraight" route="EW" depart="978" />
    <vehicle id="SW_361" type="typeTurn" route="SW" depart="980" />
    <vehicle id="NE_362" type="typeTurn" route="NE" depart="982" />
    <vehicle id="SW_363" type="typeTurn" route="SW" depart="986" />
    <vehicle id="WN_364" type="typeTurn" route="WN" depart="988" />
    <vehicle id="NE_365" type="typeTurn" route="NE" depart="990" />
    <vehicle id="SN_366" type="typeStraight" route="SN" depart="992" />
    <vehicle id="ES_367" type="typeTurn" route="ES" depart="993" />
    <vehicle id="EW_368" type="typeStraight" route="EW" depart="997" />
    <vehicle id="NE_369" type="typeTurn" route="NE" depart="1002" />
    <vehicle id="EW_370" type="typeStraight" route="EW" depart="1002" />
    <vehicle id="WE_371" type="typeStraight" route="WE" depart="1007" />
    <vehicle id="EW_372" type="typeStraight" route="EW" depart="1007" />
    <vehicle id="WE_373" type="typeStraight" route="WE" depart="1017" />
    <vehicle id="SW_374" type="typeTurn" route="SW" depart="1027" />
    <vehicle id="ES_375" type="typeTurn" route="ES" depart="1029" />
    <vehicle id="WE_376" type="typeStraight" route="WE" depart="1032" />
    <vehicle id="WN_377" type="typeTurn" route="WN" depart="1034" />
    <vehicle id="WN_378" type="typeTurn" route="WN" depart="1037" />
    <vehicle id="WE_379" type="typeStraight" route="WE" depart="1038" />
    <vehicle id="WN_380" type="typeTurn" route="WN" depart="1044" />
    <vehicle id="SN_381" type="typeStraight" route="SN" depart="1046" />
    <vehicle id="EW_382" type="typeStraight" route="EW" depart="1049" />
    <vehicle id="ES_383" type="typeTurn" route="ES" depart="1060" />
    <vehicle id="ES_384" type="typeTurn" route="ES" depart="1061" />
    <vehicle id="WE_385" type="typeStraight" route="WE" depart="1065" />
    <vehicle id="SN_386" type="typeStraight" route="SN" depart="1068" />
    <vehicle id="SW_387" type="typeTurn" route="SW" depart="1072" />
    <vehicle id="NS_388" type="typeStraight" route="NS" depart="1075" />
    <vehicle id="NE_389" type="typeTurn" route="NE" depart="1075" />
    <vehicle id="WN_390" type="typeTurn" route="WN" depart="1076" />
    <vehicle id="SN_391" type="typeStraight" route="SN" depart="1080" />
    <vehicle id="SN_392" type="typeStraight" route="SN" depart="1082" />
    <vehicle id="EW_393" type="typeStraight" route="EW" depart="1082" />
    <vehicle id="SW_394" type="typeTurn" route="SW" depart="1086" />
    <vehicle id="WN_395" type="typeTurn" route="WN" depart="1086" />
    <vehicle id="ES_396" type="typeTurn" route="ES" depart="1087" />
    <vehicle id="ES_397" type="typeTurn" route="ES" depart="1093" />
    <vehicle id="ES_398" type="typeTurn" route="ES" depart="1095" />
    <vehicle id="SW_399" type="typeTurn" route="SW" depart="1096" />
    <vehicle id="NS_400" type="typeStraight" route="NS" depart="1097" />
    <vehicle id="NE_401" type="typeTurn" route="NE" depart="1100" />
    <vehicle id="EW_402" type="typeStraight" route="EW" depart="1104" />
    <vehicle id="WN_403" type="typeTurn" route="WN" depart="1109" />
    <vehicle id="ES_404" type="typeTurn" route="ES" depart="1109" />
    <vehicle id="WE_405" type="typeStraight" route="WE" depart="1112" />
    <vehicle id="WE_406" type="typeStraight" route="WE" depart="1113" />
    <vehicle id="ES_407" type="typeTurn" route="ES" depart="1115" />
    <vehicle id="SN_408" type="typeStraight" route="SN" depart="1116" />
    <vehicle id="WN_409" type="typeTurn" route="WN" depart="1120" />
    <vehicle id="EW_410" type="typeStraight" route="EW" depart="1121" />
    <vehicle id="WE_411" type="typeStraight" route="WE" depart="1122" />
    <vehicle id="ES_412" type="typeTurn" route="ES" depart="1122" />
    <vehicle id="NE_413" type="typeTurn" route="NE" depart="1132" />
    <vehicle id="WN_414" type="typeTurn" route="WN" depart="1134" />
    <vehicle id="ES_415" type="typeTurn" route="ES" depart="1137" />
    <vehicle id="WE_416" type="typeStraight" route="WE" depart="1138" />
    <vehicle id="NE_417" type="typeTurn" route="NE" depart="1143" />
    <vehicle id="WN_418" type="typeTurn" route="WN" depart="1145" />
    <vehicle id="EW_419" type="typeStraight" route="EW" depart="1147" />
    <vehicle id="NS_420" type="typeStraight" route="NS" depart="1148" />