<routes>
        <vType id="typeStraight" accel="1" decel="4.5" sigma="0.5" length="5" minGap="2.5" maxSpeed="13.9" guiShape="passenger"/>
        <vType id="typeTurn" accel="1" decel="4.5" sigma="0.5" length="5" minGap="2.5" maxSpeed="13.9" guiShape="passenger"/>

        <route id="WE" edges="1i 2o" />
        <route id="EW" edges="2i 1o " />
        <route id="NS" edges="4i 3o " />
        <route id="SN" edges="3i 4o " />
        <route id="NE" edges="4i 2o" />
        <route id="ES" edges="2i 3o " />
        <route id="SW" edges="3i 1o " />
        <route id="WN" edges="1i 4o " />
    <vehicle id="NE_0" type="typeTurn" route="NE" depart="0" />
    <vehicle id="NE_1" type="typeTurn" route="NE" depart="1" />
    <vehicle id="WE_2" type="typeStraight" route="WE" depart="1" />
    <vehicle id="SW_3" type="typeTurn" route="SW" depart="2" />
    <vehicle id="SN_4" type="typeStraight" route="SN" depart="3" />
    <vehicle id="SW_5" type="typeTurn" route="SW" depart="3" />
    <vehicle id="NE_6" type="typeTurn" route="NE" depart="5" />
    <vehicle id="SW_7" type="typeTurn" route="SW" depart="8" />
    <vehicle id="NS_8" type="typeStraight" route="NS" depart="11" />
    <vehicle id="NE_9" type="typeTurn" route="NE" depart="11" />
    <vehicle id="WE_10" type="typeStraight" route="WE" depart="12" />
    <vehicle id="WE_11" type="typeStraight" route="WE" depart="15" />
    <vehicle id="EW_12" type="typeStraight" route="EW" depart="15" />
    <vehicle id="SW_13" type="typeTurn" route="SW" depart="16" />
    <vehicle id="NS_14" type="typeStraight" route="NS" depart="17" />
    <vehicle id="NS_15" type="typeStraight" route="NS" depart="20" />
    <vehicle id="NS_16" type="typeStraight" route="NS" depart="22" />
    <vehicle id="NS_17" type="typeStraight" route="NS" depart="28" />
    <vehicle id="NS_18" type="typeStraight" route="NS" depart="32" />
    <vehicle id="WN_19" type="typeTurn" route="WN" depart="33" />
    <vehicle id="SN_20" type="typeStraight" route="SN" depart="36" />
    <vehicle id="NE_21" type="typeTurn" route="NE" depart="37" />
    <vehicle id="SN_22" type="typeStraight" route="SN" depart="37" />
    <vehicle id="WE_23" type="typeStraight" route="WE" depart="40" />
    <vehicle id="EW_24" type="typeStraight" route="EW" depart="42" />
    <vehicle id="NS_25" type="typeStraight" route="NS" depart="46" />
    <vehicle id="SN_26" type="typeStraight" route="SN" depart="49" />
    <vehicle id="ES_27" type="typeTurn" route="ES" depart="51" />
    <vehicle id="SW_28" type="typeTurn" route="SW" depart="52" />
    <vehicle id="SW_29" type="typeTurn" route="SW" depart="53" />
    <vehicle id="SW_30" type="typeTurn" route="SW" depart="54" />
    <vehicle id="NE_31" type="typeTurn" route="NE" depart="60" />
    <vehicle id="WN_32" type="typeTurn" route="WN" depart="61" />
    <vehicle id="WN_33" type="typeTurn" route="WN" depart="62" />
    <vehicle id="NS_34" type="typeStraight" route="NS" depart="63" />
    <vehicle id="EW_35" type="typeStraight" route="EW" depart="64" />
    <vehicle id="NS_36" type="typeStraight" route="NS" depart="66" />
    <vehicle id="ES_37" type="typeTurn" route="ES" depart="67" />
    <vehicle id="WN_38" type="typeTurn" route="WN" depart="73" />
    <vehicle id="EW_39" type="typeStraight" route="EW" depart="74" />
    <vehicle id="NS_40" type="typeStraight" route="NS" depart="75" />
    <vehicle id="NS_41" type="typeStraight" route="NS" depart="76" />
    <vehicle id="WN_42" type="typeTurn" route="WN" depart="79" />
    <vehicle id="SW_43" type="typeTurn" route="SW" depart="81" />
    <vehicle id="NS_44" type="typeStraight" route="NS" depart="82" />
    <vehicle id="SN_45" type="typeStraight" route="SN" depart="82" />
    <vehicle id="SW_46" type="typeTurn" route="SW" depart="85" />
    <vehicle id="WE_47" type="typeStraight" route="WE" depart="85" />
    <vehicle id="SW_48" type="typeTurn" route="SW" depart="89" />
    <vehicle id="WE_49" type="typeStraight" route="WE" depart="89" />
    <vehicle id="NS_50" type="typeStraight" route="NS" depart="90" />
    <vehicle id="NS_51" type="typeStraight" route="NS" depart="91" />
    <vehicle id="NE_52" type="typeTurn" route="NE" depart="92" />
    <vehicle id="NE_53" type="typeTurn" route="NE" depart="102" />
    <vehicle id="SN_54" type="typeStraight" route="SN" depart="103" />
    <vehicle id="SW_55" type="typeTurn" route="SW" depart="106" />
    <vehicle id="SN_56" type="typeStraight" route="SN" depart="107" />
    <vehicle id="NS_57" type="typeStraight" route="NS" depart="108" />
    <vehicle id="NE_58" type="typeTurn" route="NE" depart="109" />
    <vehicle id="SN_59" type="typeStraight" route="SN" depart="110" />
    <vehicle id="WE_60" type="typeStraight" route="WE" depart="113" />
    <vehicle id="NE_61" type="typeTurn" route="NE" depart="116" />
    <vehicle id="WE_62" type="typeStraight" route="WE" depart="119" />
    <vehicle id="EW_63" type="typeStraight" route="EW" depart="120" />
    <vehicle id="SW_64" type="typeTurn" route="SW" depart="121" />
    <vehicle id="SW_65" type="typeTurn" route="SW" depart="124" />
    <vehicle id="NS_66" type="typeStraight" route="NS" depart="125" />
    <vehicle id="WN_67" type="typeTurn" route="WN" depart="126" />
    <vehicle id="SN_68" type="typeStraight" route="SN" depart="127" />
    <vehicle id="SN_69" type="typeStraight" route="SN" depart="128" />
    <vehicle id="NE_70" type="typeTurn" route="NE" depart="129" />
    <vehicle id="SN_71" type="typeStraight" route="SN" depart="129" />
    <vehicle id="NE_72" type="typeTurn" route="NE" depart="131" />
    <vehicle id="NS_73" type="typeStraight" route="NS" depart="133" />
    <vehicle id="NE_74" type="typeTurn" route="NE" depart="134" />
    <vehicle id="SW_75" type="typeTurn" route="SW" depart="136" />
    <vehicle id="WN_76" type="typeTurn" route="WN" depart="140" />
    <vehicle id="WN_77" type="typeTurn" route="WN" depart="141" />
    <vehicle id="SW_78" type="typeTurn" route="SW" depart="142" />
    <vehicle id="WN_79" type="typeTurn" route="WN" depart="145" />
    <vehicle id="NS_80" type="typeStraight" route="NS" depart="146" />
    <vehicle id="EW_81" type="typeStraight" route="EW" depart="146" />
    <vehicle id="NS_82" type="typeStraight" route="NS" depart="148" />
    <vehicle id="NE_83" type="typeTurn" route="NE" depart="148" />
    <vehicle id="NE_84" type="typeTurn" route="NE" depart="149" />
    <vehicle id="NS_85" type="typeStraight" route="NS" depart="155" />
    <vehicle id="NS_86" type="typeStraight" route="NS" depart="160" />
    <vehicle id="NE_87" type="typeTurn" route="NE" depart="160" />
    <vehicle id="SN_88" type="typeStraight" route="SN" depart="165" />
    <vehicle id="WN_89" type="typeTurn" route="WN" depart="171" />
    <vehicle id="SW_90" type="typeTurn" route="SW" depart="172" />
    <vehicle id="ES_91" type="typeTurn" route="ES" depart="173" />
    <vehicle id="NS_92" type="typeStraight" route="NS" depart="174" />
    <vehicle id="NE_93" type="typeTurn" route="NE" depart="175" />
    <vehicle id="NS_94" type="typeStraight" route="NS" depart="176" />
    <vehicle id="NE_95" type="typeTurn" route="NE" depart="177" />
    <vehicle id="SW_96" type="typeTurn" route="SW" depart="177" />
    <vehicle id="WN_97" type="typeTurn" route="WN" depart="178" />
    <vehicle id="WN_98" type="typeTurn" route="WN" depart="179" />
    <vehicle id="SN_99" type="typeStraight" route="SN" depart="181" />
    <vehicle id="WE_100" type="typeStraight" route="WE" depart="181" />
    <vehicle id="SN_101" type="typeStraight" route="SN" depart="185" />
    <vehicle id="NE_102" type="typeTurn" route="NE" depart="186" />
    <vehicle id="NS_103" type="typeStraight" route="NS" depart="187" />
    <vehicle id="NE_104" type="typeTurn" route="NE" depart="188" />
    <vehicle id="SN_105" type="typeStraight" route="SN" depart="188" />
    <vehicle id="SN_106" type="typeStraight" route="SN" depart="192" />
    <vehicle id="WE_107" type="typeStraight" route="WE" depart="194" />
    <vehicle id="SN_108" type="typeStraight" route="SN" depart="195" />
    <vehicle id="NE_109" type="typeTurn" route="NE" depart="196" />
    <vehicle id="NS_110" type="typeStraight" route="NS" depart="201" />
    <vehicle id="NE_111" type="typeTurn" route="NE" depart="201" />
    <vehicle id="NS_112" type="typeStraight" route="NS" depart="203" />
    <vehicle id="NE_113" type="typeTurn" route="NE" depart="203" />
    <vehicle id="SN_114" type="typeStraight" route="SN" depart="205" />
    <vehicle id="NE_115" type="typeTurn" route="NE" depart="207" />
    <vehicle id="ES_116" type="typeTurn" route="ES" depart="211" />
    <vehicle id="NE_117" type="typeTurn" route="NE" depart="215" />
    <vehicle id="ES_118" type="typeTurn" route="ES" depart="216" />
    <vehicle id="SN_119" type="typeStraight" route="SN" depart="217" />
    <vehicle id="SW_120" type="typeTurn" route="SW" depart="218" />
    <vehicle id="SN_121" type="typeStraight" route="SN" depart="225" />
    <vehicle id="ES_122" type="typeTurn" route="ES" depart="225" />
    <vehicle id="SW_123" type="typeTurn" route="SW" depart="227" />
    <vehicle id="WE_124" type="typeStraight" route="WE" depart="229" />
    <vehicle id="SN_125" type="typeStraight" route="SN" depart="234" />
    <vehicle id="SN_126" type="typeStraight" route="SN" depart="238" />
    <vehicle id="WE_127" type="typeStraight" route="WE" depart="241" />
    <vehicle id="NE_128" type="typeTurn" route="NE" depart="242" />
    <vehicle id="SW_129" type="typeTurn" route="SW" depart="242" />
    <vehicle id="NE_130" type="typeTurn" route="NE" depart="245" />
    <vehicle id="SN_131" type="typeStraight" route="SN" depart="245" />
    <vehicle id="SN_132" type="typeStraight" route="SN" depart="247" />
    <vehicle id="WN_133" type="typeTurn" route="WN" depart="247" />
    <vehicle id="NS_134" type="typeStraight" route="NS" depart="248" />
    <vehicle id="SW_135" type="typeTurn" route="SW" depart="254" />
    <vehicle id="SN_136" type="typeStraight" route="SN" depart="256" />
    <vehicle id="ES_137" type="typeTurn" route="ES" depart="262" />
    <vehicle id="NS_138" type="typeStraight" route="NS" depart="264" />
    <vehicle id="NS_139" type="typeStraight" route="NS" depart="265" />
    <vehicle id="SN_140" type="typeStraight" route="SN" depart="265" />
    <vehicle id="EW_141" type="typeStraight" route="EW" depart="265" />
    <vehicle id="NS_142" type="typeStraight" route="NS" depart="269" />
    <vehicle id="NE_143" type="typeTurn" route="NE" depart="269" />
    <vehicle id="NS_144" type="typeStraight" route="NS" depart="270" />
    <vehicle id="SN_145" type="typeStraight" route="SN" depart="270" />
    <vehicle id="ES_146" type="typeTurn" route="ES" depart="270" />
    <vehicle id="NS_147" type="typeStraight" route="NS" depart="271" />
    <vehicle id="WE_148" type="typeStraight" route="WE" depart="271" />
    <vehicle id="NE_149" type="typeTurn" route="NE" depart="274" />
    <vehicle id="NE_150" type="typeTurn" route="NE" depart="275" />
    <vehicle id="SN_151" type="typeStraight" route="SN" depart="276" />
    <vehicle id="WN_152" type="typeTurn" route="WN" depart="277" />
    <vehicle id="EW_153" type="typeStraight" route="EW" depart="278" />
    <vehicle id="NS_154" type="typeStraight" route="NS" depart="279" />
    <vehicle id="NS_155" type="typeStraight" route="NS" depart="281" />
    <vehicle id="NE_156" type="typeTurn" route="NE" depart="288" />
    <vehicle id="SW_157" type="typeTurn" route="SW" depart="290" />
    <vehicle id="SN_158" type="typeStraight" route="SN" depart="291" />
    <vehicle id="EW_159" type="typeStraight" route="EW" depart="292" />
    <vehicle id="ES_160" type="typeTurn" route="ES" depart="296" />
    <vehicle id="NS_161" type="typeStraight" route="NS" depart="298" />
    <vehicle id="NS_162" type="typeStraight" route="NS" depart="303" />
    <vehicle id="SN_163" type="typeStraight" route="SN" depart="303" />
    <vehicle id="WN_164" type="typeTurn" route="WN" depart="304" />
    <vehicle id="WN_165" type="typeTurn" route="WN" depart="306" />
    <vehicle id="NE_166" type="typeTurn" route="NE" depart="311" />
    <vehicle id="WE_167" type="typeStraight" route="WE" depart="314" />
    <vehicle id="SW_168" type="typeTurn" route="SW" depart="315" />
    <vehicle id="NS_169" type="typeStraight" route="NS" depart="317" />
    <vehicle id="NE_170" type="typeTurn" route="NE" depart="317" />
    <vehicle id="ES_171" type="typeTurn" route="ES" depart="317" />
    <vehicle id="SW_172" type="typeTurn" route="SW" depart="320" />
    <vehicle id="NS_173" type="typeStraight" route="NS" depart="321" />
    <vehicle id="SW_174" type="typeTurn" route="SW" depart="323" />
    <vehicle id="SN_175" type="typeStraight" route="SN" depart="327" />
    <vehicle id="WN_176" type="typeTurn" route="WN" depart="329" />
    <vehicle id="NS_177" type="typeStraight" route="NS" depart="330" />
    <vehicle id="NE_178" type="typeTurn" route="NE" depart="330" />
    <vehicle id="NS_179" type="typeStraight" route="NS" depart="331" />
    <vehicle id="NE_180" type="typeTurn" route="NE" depart="333" />
    <vehicle id="SN_181" type="typeStraight" route="SN" depart="333" />
    <vehicle id="ES_182" type="typeTurn" route="ES" depart="335" />
    <vehicle id="SN_183" type="typeStraight" route="SN" depart="336" />
    <vehicle id="NE_184" type="typeTurn" route="NE" depart="338" />
    <vehicle id="NE_185" type="typeTurn" route="NE" depart="340" />
    <vehicle id="NE_186" type="typeTurn" route="NE" depart="341" />
    <vehicle id="ES_187" type="typeTurn" route="ES" depart="341" />
    <vehicle id="WE_188" type="typeStraight" route="WE" depart="343" />
    <vehicle id="SW_189" type="typeTurn" route="SW" depart="344" />
    <vehicle id="SW_190" type="typeTurn" route="SW" depart="345" />
    <vehicle id="NE_191" type="typeTurn" route="NE" depart="347" />
    <vehicle id="ES_192" type="typeTurn" route="ES" depart="350" />
    <vehicle id="SN_193" type="typeStraight" route="SN" depart="351" />
    <vehicle id="NE_194" type="typeTurn" route="NE" depart="352" />
    <vehicle id="NE_195" type="typeTurn" route="NE" depart="353" />
    <vehicle id="WE_196" type="typeStraight" route="WE" depart="354" />
    <vehicle id="WE_197" type="typeStraight" route="WE" depart="355" />
    <vehicle id="SN_198" type="typeStraight" route="SN" depart="356" />
    <vehicle id="NE_199" type="typeTurn" route="NE" depart="357" />
    <vehicle id="NS_200" type="typeStraight" route="NS" depart="362" />
    <vehicle id="WN_201" type="typeTurn" route="WN" depart="363" />
    <vehicle id="NS_202" type="typeStraight" route="NS" depart="365" />
    <vehicle id="WE_203" type="typeStraight" route="WE" depart="365" />
    <vehicle id="WE_204" type="typeStraight" route="WE" depart="366" />
    <vehicle id="ES_205" type="typeTurn" route="ES" depart="370" />
    <vehicle id="SW_206" type="typeTurn" route="SW" depart="373" />
    <vehicle id="EW_207" type="typeStraight" route="EW" depart="373" />
    <vehicle id="NE_208" type="typeTurn" route="NE" depart="376" />
    <vehicle id="SW_209" type="typeTurn" route="SW" depart="377" />
    <vehicle id="NE_210" type="typeTurn" route="NE" depart="379" />
    <vehicle id="SW_211" type="typeTurn" route="SW" depart="380" />
    <vehicle id="NE_212" type="typeTurn" route="NE" depart="383" />
    <vehicle id="NE_213" type="typeTurn" route="NE" depart="391" />
    <vehicle id="EW_214" type="typeStraight" route="EW" depart="391" />
    <vehicle id="WN_215" type="typeTurn" route="WN" depart="392" />
    <vehicle id="SW_216" type="typeTurn" route="SW" depart="393" />
    <vehicle id="SN_217" type="typeStraight" route="SN" depart="396" />
    <vehicle id="ES_218" type="typeTurn" route="ES" depart="397" />
    <vehicle id="WE_219" type="typeStraight" route="WE" depart="400" />
    <vehicle id="ES_220" type="typeTurn" route="ES" depart="400" />
    <vehicle id="SW_221" type="typeTurn" route="SW" depart="401" />
    <vehicle id="SN_222" type="typeStraight" route="SN" depart="404" />
    <vehicle id="NS_223" type="typeStraight" route="NS" depart="407" />
    <vehicle id="SN_224" type="typeStraight" route="SN" depart="412" />
    <vehicle id="NE_225" type="typeTurn" route="NE" depart="414" />
    <vehicle id="NS_226" type="typeStraight" route="NS" depart="415" />
    <vehicle id="EW_227" type="typeStraight" route="EW" depart="415" />
    <vehicle id="NE_228" type="typeTurn" route="NE" depart="416" />
    <vehicle id="WN_229" type="typeTurn" route="WN" depart="420" />
    <vehicle id="NE_230" type="typeTurn" route="NE" depart="421" />
    <vehicle id="WN_231" type="typeTurn" route="WN" depart="421" />
    <vehicle id="NE_232" type="typeTurn" route="NE" depart="425" />
    <vehicle id="EW_233" type="typeStraight" route="EW" depart="425" />
    <vehicle id="ES_234" type="typeTurn" route="ES" depart="427" />
    <vehicle id="EW_235" type="typeStraight" route="EW" depart="428" />
    <vehicle id="SW_236" type="typeTurn" route="SW" depart="431" />
    <vehicle id="WN_237" type="typeTurn" route="WN" depart="432" />
    <vehicle id="WN_238" type="typeTurn" route="WN" depart="433" />
    <vehicle id="SN_239" type="typeStraight" route="SN" depart="435" />
    <vehicle id="SW_240" type="typeTurn" route="SW" depart="436" />
    <vehicle id="NE_241" type="typeTurn" route="NE" depart="437" />
    <vehicle id="WN_242" type="typeTurn" route="WN" depart="439" />
    <vehicle id="NS_243" type="typeStraight" route="NS" depart="443" />
    <vehicle id="NE_244" type="typeTurn" route="NE" depart="446" />
    <vehicle id="NS_245" type="typeStraight" route="NS" depart="453" />
    <vehicle id="WE_246" type="typeStraight" route="WE" depart="454" />
    <vehicle id="ES_247" type="typeTurn" route="ES" depart="456" />
    <vehicle id="NE_248" type="typeTurn" route="NE" depart="462" />
    <vehicle id="NS_249" type="typeStraight" route="NS" depart="464" />
    <vehicle id="SW_250" type="typeTurn" route="SW" depart="466" />
    <vehicle id="SW_251" type="typeTurn" route="SW" depart="467" />
    <vehicle id="EW_252" type="typeStraight" route="EW" depart="470" />
    <vehicle id="SW_253" type="typeTurn" route="SW" depart="472" />
    <vehicle id="NE_254" type="typeTurn" route="NE" depart="475" />
    <vehicle id="NE_255" type="typeTurn" route="NE" depart="478" />
    <vehicle id="SN_256" type="typeStraight" route="SN" depart="478" />
    <vehicle id="WE_257" type="typeStraight" route="WE" depart="480" />
    <vehicle id="NE_258" type="typeTurn" route="NE" depart="483" />
    <vehicle id="SN_259" type="typeStraight" route="SN" depart="483" />
    <vehicle id="SW_260" type="typeTurn" route="SW" depart="483" />
    <vehicle id="WN_261" type="typeTurn" route="WN" depart="483" />
    <vehicle id="NS_262" type="typeStraight" route="NS" depart="488" />
    <vehicle id="SN_263" type="typeStraight" route="SN" depart="488" />
    <vehicle id="NS_264" type="typeStraight" route="NS" depart="489" />
    <vehicle id="SN_265" type="typeStraight" route="SN" depart="492" />
    <vehicle id="NE_266" type="typeTurn" route="NE" depart="494" />
    <vehicle id="SN_267" type="typeStraight" route="SN" depart="494" />
    <vehicle id="EW_268" type="typeStraight" route="EW" depart="494" />
    <vehicle id="NS_269" type="typeStraight" route="NS" depart="495" />
    <vehicle id="EW_270" type="typeStraight" route="EW" depart="495" />
    <vehicle id="SN_271" type="typeStraight" route="SN" depart="496" />
    <vehicle id="SN_272" type="typeStraight" route="SN" depart="499" />
    <vehicle id="WN_273" type="typeTurn" route="WN" depart="499" />
    <vehicle id="SN_274" type="typeStraight" route="SN" depart="501" />
    <vehicle id="NE_275" type="typeTurn" route="NE" depart="504" />
    <vehicle id="ES_276" type="typeTurn" route="ES" depart="508" />
    <vehicle id="NS_277" type="typeStraight" route="NS" depart="509" />
    <vehicle id="ES_278" type="typeTurn" route="ES" depart="509" />
    <vehicle id="EW_279" type="typeStraight" route="EW" depart="511" />
    <vehicle id="SW_280" type="typeTurn" route="SW" depart="512" />
    <vehicle id="WN_281" type="typeTurn" route="WN" depart="512" />
    <vehicle id="EW_282" type="typeStraight" route="EW" depart="517" />
    <vehicle id="NS_283" type="typeStraight" route="NS" depart="518" />
    <vehicle id="NS_284" type="typeStraight" route="NS" depart="519" />
    <vehicle id="SW_285" type="typeTurn" route="SW" depart="519" />
    <vehicle id="ES_286" type="typeTurn" route="ES" depart="522" />
    <vehicle id="NS_287" type="typeStraight" route="NS" depart="526" />
    <vehicle id="SN_288" type="typeStraight" route="SN" depart="531" />
    <vehicle id="WE_289" type="typeStraight" route="WE" depart="532" />
    <vehicle id="SW_290" type="typeTurn" route="SW" depart="537" />
    <vehicle id="NS_291" type="typeStraight" route="NS" depart="538" />
    <vehicle id="SW_292" type="typeTurn" route="SW" depart="538" />
    <vehicle id="EW_293" type="typeStraight" route="EW" depart="538" />
    <vehicle id="NE_294" type="typeTurn" route="NE" depart="539" />
    <vehicle id="WE_295" type="typeStraight" route="WE" depart="540" />
    <vehicle id="EW_296" type="typeStraight" route="EW" depart="543" />
    <vehicle id="SW_297" type="typeTurn" route="SW" depart="544" />
    <vehicle id="ES_298" type="typeTurn" route="ES" depart="544" />
    <vehicle id="SW_299" type="typeTurn" route="SW" depart="545" />
    <vehicle id="ES_300" type="typeTurn" route="ES" depart="548" />
    <vehicle id="NS_301" type="typeStraight" route="NS" depart="549" />
    <vehicle id="SW_302" type="typeTurn" route="SW" depart="551" />
    <vehicle id="NE_303" type="typeTurn" route="NE" depart="553" />
    <vehicle id="SW_304" type="typeTurn" route="SW" depart="554" />
    <vehicle id="SW_305" type="typeTurn" route="SW" depart="556" />
    <vehicle id="WE_306" type="typeStraight" route="WE" depart="556" />
    <vehicle id="NE_307" type="typeTurn" route="NE" depart="557" />
    <vehicle id="SW_308" type="typeTurn" route="SW" depart="557" />
    <vehicle id="NS_309" type="typeStraight" route="NS" depart="558" />
    <vehicle id="NE_310" type="typeTurn" route="NE" depart="562" />
    <vehicle id="WN_311" type="typeTurn" route="WN" depart="562" />
    <vehicle id="SW_312" type="typeTurn" route="SW" depart="565" />
    <vehicle id="NE_313" type="typeTurn" route="NE" depart="567" />
    <vehicle id="SW_314" type="typeTurn" route="SW" depart="567" />
    <vehicle id="SW_315" type="typeTurn" route="SW" depart="568" />
    <vehicle id="NS_316" type="typeStraight" route="NS" depart="569" />
    <vehicle id="NE_317" type="typeTurn" route="NE" depart="575" />
    <vehicle id="NE_318" type="typeTurn" route="NE" depart="576" />
    <vehicle id="NS_319" type="typeStraight" route="NS" depart="577" />
    <vehicle id="NS_320" type="typeStraight" route="NS" depart="579" />
    <vehicle id="SN_321" type="typeStraight" route="SN" depart="580" />
    <vehicle id="EW_322" type="typeStraight" route="EW" depart="580" />
    <vehicle id="SW_323" type="typeTurn" route="SW" depart="581" />
    <vehicle id="ES_324" type="typeTurn" route="ES" depart="582" />
    <vehicle id="NE_325" type="typeTurn" route="NE" depart="583" />
    <vehicle id="NE_326" type="typeTurn" route="NE" depart="585" />
    <vehicle id="ES_327" type="typeTurn" route="ES" depart="585" />
    <vehicle id="EW_328" type="typeStraight" route="EW" depart="586" />
    <vehicle id="SN_329" type="typeStraight" route="SN" depart="588" />
    <vehicle id="EW_330" type="typeStraight" route="EW" depart="588" />
    <vehicle id="NS_331" type="typeStraight" route="NS" depart="590" />
    <vehicle id="SW_332" type="typeTurn" route="SW" depart="590" />
    <vehicle id="NS_333" type="typeStraight" route="NS" depart="591" />
    <vehicle id="SN_334" type="typeStraight" route="SN" depart="591" />
    <vehicle id="NS_335" type="typeStraight" route="NS" depart="592" />
    <vehicle id="EW_336" type="typeStraight" route="EW" depart="593" />
    <vehicle id="ES_337" type="typeTurn" route="ES" depart="595" />
    <vehicle id="WE_338" type="typeStraight" route="WE" depart="604" />
    <vehicle id="EW_339" type="typeStraight" route="EW" depart="604" />
    <vehicle id="WN_340" type="typeTurn" route="WN" depart="606" />
    <vehicle id="SN_341" type="typeStraight" route="SN" depart="608" />
    <vehicle id="SN_342" type="typeStraight" route="SN" depart="609" />
    <vehicle id="SN_343" type="typeStraight" route="SN" depart="610" />
    <vehicle id="NE_344" type="typeTurn" route="NE" depart="617" />
    <vehicle id="EW_345" type="typeStraight" route="EW" depart="618" />
    <vehicle id="NE_346" type="typeTurn" route="NE" depart="619" />
    <vehicle id="ES_347" type="typeTurn" route="ES" depart="619" />
    <vehicle id="SW_348" type="typeTurn" route="SW" depart="621" />
    <vehicle id="NE_349" type="typeTurn" route="NE" depart="626" />
    <vehicle id="SN_350" type="typeStraight" route="SN" depart="626" />
    <vehicle id="WE_351" type="typeStraight" route="WE" depart="627" />
    <vehicle id="SW_352" type="typeTurn" route="SW" depart="628" />
    <vehicle id="NS_353" type="typeStraight" route="NS" depart="629" />
    <vehicle id="WE_354" type="typeStraight" route="WE" depart="632" />
    <vehicle id="ES_355" type="typeTurn" route="ES" depart="633" />
    <vehicle id="WE_356" type="typeStraight" route="WE" depart="635" />
    <vehicle id="EW_357" type="typeStraight" route="EW" depart="637" />
    <vehicle id="SN_358" type="typeStraight" route="SN" depart="638" />
    <vehicle id="WE_359" type="typeStraight" route="WE" depart="638" />
    <vehicle id="SW_360" type="typeTurn" route="SW" depart="640" />
    <vehicle id="NS_361" type="typeStraight" route="NS" depart="647" />
    <vehicle id="NS_362" type="typeStraight" route="NS" depart="652" />
    <vehicle id="WE_363" type="typeStraight" route="WE" depart="653" />
    <vehicle id="WN_364" type="typeTurn" route="WN" depart="655" />
    <vehicle id="SW_365" type="typeTurn" route="SW" depart="659" />
    <vehicle id="WE_366" type="typeStraight" route="WE" depart="659" />
    <vehicle id="NE_367" type="typeTurn" route="NE" depart="660" />
    <vehicle id="SN_368" type="typeStraight" route="SN" depart="664" />
    <vehicle id="NS_369" type="typeStraight" route="NS" depart="665" />
    <vehicle id="ES_370" type="typeTurn" route="ES" depart="666" />
    <vehicle id="SW_371" type="typeTurn" route="SW" depart="669" />
    <vehicle id="NS_372" type="typeStraight" route="NS" depart="671" />
    <vehicle id="SW_373" type="typeTurn" route="SW" depart="674" />
    <vehicle id="NE_374" type="typeTurn" route="NE" depart="675" />
    <vehicle id="SN_375" type="typeStraight" route="SN" depart="676" />
    <vehicle id="NS_376" type="typeStraight" route="NS" depart="678" />
    <vehicle id="NE_377" type="typeTurn" route="NE" depart="678" />
    <vehicle id="ES_378" type="typeTurn" route="ES" depart="678" />
    <vehicle id="NS_379" type="typeStraight" route="NS" depart="679" />
    <vehicle id="SW_380" type="typeTurn" route="SW" depart="682" />
    <vehicle id="WE_381" type="typeStraight" route="WE" depart="687" />
    <vehicle id="SN_382" type="typeStraight" route="SN" depart="689" />
    <vehicle id="ES_383" type="typeTurn" route="ES" depart="689" />
    <vehicle id="WN_384" type="typeTurn" route="WN" depart="692" />
    <vehicle id="NS_385" type="typeStraight" route="NS" depart="693" />
    <vehicle id="SN_386" type="typeStraight" route="SN" depart="694" />
    <vehicle id="ES_387" type="typeTurn" route="ES" depart="694" />
    <vehicle id="SW_388" type="typeTurn" route="SW" depart="695" />
    <vehicle id="SW_389" type="typeTurn" route="SW" depart="699" />
    <vehicle id="NS_390" type="typeStraight" route="NS" depart="700" />
    <vehicle id="SN_391" type="typeStraight" route="SN" depart="700" />
    <vehicle id="NE_392" type="typeTurn" route="NE" depart="702" />
    <vehicle id="NS_393" type="typeStraight" route="NS" depart="703" />
    <vehicle id="SW_394" type="typeTurn" route="SW" depart="705" />
    <vehicle id="SN_395" type="typeStraight" route="SN" depart="706" />
    <vehicle id="SN_396" type="typeStraight" route="SN" depart="708" />
    <vehicle id="SW_397" type="typeTurn" route="SW" depart="712" />
    <vehicle id="SW_398" type="typeTurn" route="SW" depart="714" />
    <vehicle id="WN_399" type="typeTurn" route="WN" depart="714" />
    <vehicle id="NS_400" type="typeStraight" route="NS" depart="715" />
    <vehicle id="NS_401" type="typeStraight" route="NS" depart="716" />
    <vehicle id="WE_402" type="typeStraight" route="WE" depart="717" />
    <vehicle id="NE_403" type="typeTurn" route="NE" depart="719" />
    <vehicle id="NS_404" type="typeStraight" route="NS" depart="720" />
    <vehicle id="SW_405" type="typeTurn" route="SW" depart="720" />
    <vehicle id="SN_406" type="typeStraight" route="SN" depart="728" />
    <vehicle id="ES_407" type="typeTurn" route="ES" depart="730" />
    <vehicle id="WE_408" type="typeStraight" route="WE" depart="732" />
    <vehicle id="SN_409" type="typeStraight" route="SN" depart="733" />
    <vehicle id="ES_410" type="typeTurn" route="ES" depart="734" />
    <vehicle id="WN_411" type="typeTurn" route="WN" depart="738" />
    <vehicle id="NE_412" type="typeTurn" route="NE" depart="739" />
    <vehicle id="NE_413" type="typeTurn" route="NE" depart="741" />
    <vehicle id="SN_414" type="typeStraight" route="SN" depart="743" />
    <vehicle id="NS_415" type="typeStraight" route="NS" depart="745" />
    <vehicle id="EW_416" type="typeStraight" route="EW" depart="745" />
    <vehicle id="ES_417" type="typeTurn" route="ES" depart="745" />
    <vehicle id="SN_418" type="typeStraight" route="SN" depart="749" />
    <vehicle id="NE_419" type="typeTurn" route="NE" depart="751" />
    <vehicle id="SN_420" type="typeStraight" route="SN" depart="752" />
    <vehicle id="WN_421" type="typeTurn" route="WN" depart="752" />