<routes>
        <vType id="typeStraight" accel="1" decel="4.5" sigma="0.5" length="5" minGap="2.5" maxSpeed="13.9" guiShape="passenger"/>
        <vType id="typeTurn" accel="1" decel="4.5" sigma="0.5" length="5" minGap="2.5" maxSpeed="13.9" guiShape="passenger"/>

        <route id="WE" edges="1i 2o" />
        <route id="EW" edges="2i 1o " />
        <route id="NS" edges="4i 3o " />
        <route id="SN" edges="3i 4o " />
        <route id="NE" edges="4i 2o" />
        <route id="ES" edges="2i 3o " />
        <route id="SW" edges="3i 1o " />
        <route id="WN" edges="1i 4o " />
    <vehicle id="NE_0" type="typeTurn" route="NE" depart="0" />
    <vehicle id="NE_1" type="typeTurn" route="NE" depart="1" />
    <vehicle id="WE_2" type="typeStraight" route="WE" depart="1" />
    <vehicle id="SW_3" type="typeTurn" route="SW" depart="2" />
    <vehicle id="SN_4" type="typeStraight" route="SN" depart="3" />
    <vehicle id="SW_5" type="typeTurn" route="SW" depart="3" />
    <vehicle id="NE_6" type="typeTurn" route="NE" depart="5" />
    <vehicle id="SW_7" type="typeTurn" route="SW" depart="8" />
    <vehicle id="NS_8" type="typeStraight" route="NS" depart="11" />
    <vehicle id="NE_9" type="typeTurn" route="NE" depart="11" />
    <vehicle id="SN_10" type="typeStraight" route="SN" depart="11" />
    <vehicle id="WE_11" type="typeStraight" route="WE" depart="12" />
    <vehicle id="SN_12" type="typeStraight" route="SN" depart="13" />
    <vehicle id="WE_13" type="typeStraight" route="WE" depart="15" />
    <vehicle id="EW_14" type="typeStraight" route="EW" depart="15" />
    <vehicle id="SW_15" type="typeTurn" route="SW" depart="16" />
    <vehicle id="NS_16" type="typeStraight" route="NS" depart="17" />
    <vehicle id="SN_17" type="typeStraight" route="SN" depart="19" />
    <vehicle id="NS_18" type="typeStraight" route="NS" depart="20" />
    <vehicle id="NS_19" type="typeStraight" route="NS" depart="22" />
    <vehicle id="NS_20" type="typeStraight" route="NS" depart="28" />
    <vehicle id="SW_21" type="typeTurn" route="SW" depart="29" />
    <vehicle id="NS_22" type="typeStraight" route="NS" depart="32" />
    <vehicle id="WN_23" type="typeTurn" route="WN" depart="33" />
    <vehicle id="SW_24" type="typeTurn" route="SW" depart="34" />
    <vehicle id="SN_25" type="typeStraight" route="SN" depart="36" />
    <vehicle id="NE_26" type="typeTurn" route="NE" depart="37" />
    <vehicle id="SN_27" type="typeStraight" route="SN" depart="37" />
    <vehicle id="NE_28" type="typeTurn" route="NE" depart="39" />
    <vehicle id="WE_29" type="typeStraight" route="WE" depart="40" />
    <vehicle id="EW_30" type="typeStraight" route="EW" depart="42" />
    <vehicle id="NE_31" type="typeTurn" route="NE" depart="44" />
    <vehicle id="NS_32" type="typeStraight" route="NS" depart="46" />
    <vehicle id="SN_33" type="typeStraight" route="SN" depart="49" />
    <vehicle id="ES_34" type="typeTurn" route="ES" depart="51" />
    <vehicle id="SW_35" type="typeTurn" route="SW" depart="52" />
    <vehicle id="SW_36" type="typeTurn" route="SW" depart="53" />
    <vehicle id="SW_37" type="typeTurn" route="SW" depart="54" />
    <vehicle id="NE_38" type="typeTurn" route="NE" depart="60" />
    <vehicle id="WN_39" type="typeTurn" route="WN" depart="61" />
    <vehicle id="WN_40" type="typeTurn" route="WN" depart="62" />
    <vehicle id="NS_41" type="typeStraight" route="NS" depart="63" />
    <vehicle id="EW_42" type="typeStraight" route="EW" depart="64" />
    <vehicle id="NS_43" type="typeStraight" route="NS" depart="66" />
    <vehicle id="SW_44" type="typeTurn" route="SW" depart="67" />
    <vehicle id="ES_45" type="typeTurn" route="ES" depart="67" />
    <vehicle id="NS_46" type="typeStraight" route="NS" depart="69" />
    <vehicle id="WN_47" type="typeTurn" route="WN" depart="73" />
    <vehicle id="EW_48" type="typeStraight" route="EW" depart="74" />
    <vehicle id="NS_49" type="typeStraight" route="NS" depart="75" />
    <vehicle id="NS_50" type="typeStraight" route="NS" depart="76" />
    <vehicle id="NE_51" type="typeTurn" route="NE" depart="79" />
    <vehicle id="WN_52" type="typeTurn" route="WN" depart="79" />
    <vehicle id="SW_53" type="typeTurn" route="SW" depart="81" />
    <vehicle id="NS_54" type="typeStraight" route="NS" depart="82" />
    <vehicle id="SN_55" type="typeStraight" route="SN" depart="82" />
    <vehicle id="SW_56" type="typeTurn" route="SW" depart="85" />
    <vehicle id="WE_57" type="typeStraight" route="WE" depart="85" />
    <vehicle id="SW_58" type="typeTurn" route="SW" depart="89" />
    <vehicle id="WE_59" type="typeStraight" route="WE" depart="89" />
    <vehicle id="NS_60" type="typeStraight" route="NS" depart="90" />
    <vehicle id="NS_61" type="typeStraight" route="NS" depart="91" />
    <vehicle id="NE_62" type="typeTurn" route="NE" depart="92" />
    <vehicle id="NS_63" type="typeStraight" route="NS" depart="96" />
    <vehicle id="SW_64" type="typeTurn" route="SW" depart="97" />
    <vehicle id="NE_65" type="typeTurn" route="NE" depart="102" />
    <vehicle id="SN_66" type="typeStraight" route="SN" depart="103" />
    <vehicle id="SW_67" type="typeTurn" route="SW" depart="106" />
    <vehicle id="SN_68" type="typeStraight" route="SN" depart="107" />
    <vehicle id="NS_69" type="typeStraight" route="NS" depart="108" />
    <vehicle id="NE_70" type="typeTurn" route="NE" depart="109" />
    <vehicle id="SN_71" type="typeStraight" route="SN" depart="110" />
    <vehicle id="WE_72" type="typeStraight" route="WE" depart="113" />
    <vehicle id="NE_73" type="typeTurn" route="NE" depart="116" />
    <vehicle id="NE_74" type="typeTurn" route="NE" depart="118" />
    <vehicle id="WE_75" type="typeStraight" route="WE" depart="119" />
    <vehicle id="EW_76" type="typeStraight" route="EW" depart="120" />
    <vehicle id="SW_77" type="typeTurn" route="SW" depart="121" />
    <vehicle id="SW_78" type="typeTurn" route="SW" depart="124" />
    <vehicle id="NS_79" type="typeStraight" route="NS" depart="125" />
    <vehicle id="WN_80" type="typeTurn" route="WN" depart="126" />
    <vehicle id="SN_81" type="typeStraight" route="SN" depart="127" />
    <vehicle id="SN_82" type="typeStraight" route="SN" depart="128" />
    <vehicle id="NE_83" type="typeTurn" route="NE" depart="129" />
    <vehicle id="SN_84" type="typeStraight" route="SN" depart="129" />
    <vehicle id="NE_85" type="typeTurn" route="NE" depart="131" />
    <vehicle id="NS_86" type="typeStraight" route="NS" depart="133" />
    <vehicle id="NE_87" type="typeTurn" route="NE" depart="134" />
    <vehicle id="SW_88" type="typeTurn" route="SW" depart="136" />
    <vehicle id="SN_89" type="typeStraight" route="SN" depart="139" />
    <vehicle id="WN_90" type="typeTurn" route="WN" depart="140" />
    <vehicle id="WN_91" type="typeTurn" route="WN" depart="141" />
    <vehicle id="SW_92" type="typeTurn" route="SW" depart="142" />
    <vehicle id="WN_93" type="typeTurn" route="WN" depart="145" />
    <vehicle id="NS_94" type="typeStraight" route="NS" depart="146" />
    <vehicle id="EW_95" type="typeStraight" route="EW" depart="146" />
    <vehicle id="NS_96" type="typeStraight" route="NS" depart="148" />
    <vehicle id="NE_97" type="typeTurn" route="NE" depart="148" />
    <vehicle id="NS_98" type="typeStraight" route="NS" depart="149" />
    <vehicle id="NE_99" type="typeTurn" route="NE" depart="149" />
    <vehicle id="SN_100" type="typeStraight" route="SN" depart="151" />
    <vehicle id="NS_101" type="typeStraight" route="NS" depart="155" />
    <vehicle id="NS_102" type="typeStraight" route="NS" depart="160" />
    <vehicle id="NE_103" type="typeTurn" route="NE" depart="160" />
    <vehicle id="SN_104" type="typeStraight" route="SN" depart="165" />
    <vehicle id="NS_105" type="typeStraight" route="NS" depart="170" />
    <vehicle id="WN_106" type="typeTurn" route="WN" depart="171" />
    <vehicle id="SW_107" type="typeTurn" route="SW" depart="172" />
    <vehicle id="ES_108" type="typeTurn" route="ES" depart="173" />
    <vehicle id="NS_109" type="typeStraight" route="NS" depart="174" />
    <vehicle id="NE_110" type="typeTurn" route="NE" depart="175" />
    <vehicle id="NS_111" type="typeStraight" route="NS" depart="176" />
    <vehicle id="NE_112" type="typeTurn" route="NE" depart="177" />
    <vehicle id="SW_113" type="typeTurn" route="SW" depart="177" />
    <vehicle id="WN_114" type="typeTurn" route="WN" depart="178" />
    <vehicle id="WN_115" type="typeTurn" route="WN" depart="179" />
    <vehicle id="SN_116" type="typeStraight" route="SN" depart="181" />
    <vehicle id="WE_117" type="typeStraight" route="WE" depart="181" />
    <vehicle id="NS_118" type="typeStraight" route="NS" depart="183" />
    <vehicle id="SN_119" type="typeStraight" route="SN" depart="185" />
    <vehicle id="NE_120" type="typeTurn" route="NE" depart="186" />
    <vehicle id="NS_121" type="typeStraight" route="NS" depart="187" />
    <vehicle id="NE_122" type="typeTurn" route="NE" depart="188" />
    <vehicle id="SN_123" type="typeStraight" route="SN" depart="188" />
    <vehicle id="NE_124" type="typeTurn" route="NE" depart="190" />
    <vehicle id="SN_125" type="typeStraight" route="SN" depart="192" />
    <vehicle id="NS_126" type="typeStraight" route="NS" depart="194" />
    <vehicle id="WE_127" type="typeStraight" route="WE" depart="194" />
    <vehicle id="SN_128" type="typeStraight" route="SN" depart="195" />
    <vehicle id="NE_129" type="typeTurn" route="NE" depart="196" />
    <vehicle id="NS_130" type="typeStraight" route="NS" depart="201" />
    <vehicle id="NE_131" type="typeTurn" route="NE" depart="201" />
    <vehicle id="NS_132" type="typeStraight" route="NS" depart="203" />
    <vehicle id="NE_133" type="typeTurn" route="NE" depart="203" />
    <vehicle id="SN_134" type="typeStraight" route="SN" depart="205" />
    <vehicle id="NE_135" type="typeTurn" route="NE" depart="207" />
    <vehicle id="ES_136" type="typeTurn" route="ES" depart="211" />
    <vehicle id="NE_137" type="typeTurn" route="NE" depart="215" />
    <vehicle id="ES_138" type="typeTurn" route="ES" depart="216" />
    <vehicle id="NE_139" type="typeTurn" route="NE" depart="217" />
    <vehicle id="SN_140" type="typeStraight" route="SN" depart="217" />
    <vehicle id="SW_141" type="typeTurn" route="SW" depart="218" />
    <vehicle id="NE_142" type="typeTurn" route="NE" depart="222" />
    <vehicle id="SN_143" type="typeStraight" route="SN" depart="225" />
    <vehicle id="ES_144" type="typeTurn" route="ES" depart="225" />
    <vehicle id="SW_145" type="typeTurn" route="SW" depart="227" />
    <vehicle id="WE_146" type="typeStraight" route="WE" depart="229" />
    <vehicle id="NS_147" type="typeStraight" route="NS" depart="231" />
    <vehicle id="SN_148" type="typeStraight" route="SN" depart="234" />
    <vehicle id="SN_149" type="typeStraight" route="SN" depart="238" />
    <vehicle id="SW_150" type="typeTurn" route="SW" depart="239" />
    <vehicle id="WE_151" type="typeStraight" route="WE" depart="241" />
    <vehicle id="NE_152" type="typeTurn" route="NE" depart="242" />
    <vehicle id="SW_153" type="typeTurn" route="SW" depart="242" />
    <vehicle id="NE_154" type="typeTurn" route="NE" depart="245" />
    <vehicle id="SN_155" type="typeStraight" route="SN" depart="245" />
    <vehicle id="SN_156" type="typeStraight" route="SN" depart="247" />
    <vehicle id="WN_157" type="typeTurn" route="WN" depart="247" />
    <vehicle id="NS_158" type="typeStraight" route="NS" depart="248" />
    <vehicle id="SW_159" type="typeTurn" route="SW" depart="254" />
    <vehicle id="SN_160" type="typeStraight" route="SN" depart="256" />
    <vehicle id="ES_161" type="typeTurn" route="ES" depart="262" />
    <vehicle id="NS_162" type="typeStraight" route="NS" depart="264" />
    <vehicle id="NS_163" type="typeStraight" route="NS" depart="265" />
    <vehicle id="SN_164" type="typeStraight" route="SN" depart="265" />
    <vehicle id="EW_165" type="typeStraight" route="EW" depart="265" />
    <vehicle id="SW_166" type="typeTurn" route="SW" depart="266" />
    <vehicle id="NS_167" type="typeStraight" route="NS" depart="269" />
    <vehicle id="NE_168" type="typeTurn" route="NE" depart="269" />
    <vehicle id="NS_169" type="typeStraight" route="NS" depart="270" />
    <vehicle id="SN_170" type="typeStraight" route="SN" depart="270" />
    <vehicle id="ES_171" type="typeTurn" route="ES" depart="270" />
    <vehicle id="NS_172" type="typeStraight" route="NS" depart="271" />
    <vehicle id="WE_173" type="typeStraight" route="WE" depart="271" />
    <vehicle id="NE_174" type="typeTurn" route="NE" depart="274" />
    <vehicle id="NE_175" type="typeTurn" route="NE" depart="275" />
    <vehicle id="SN_176" type="typeStraight" route="SN" depart="276" />
    <vehicle id="WN_177" type="typeTurn" route="WN" depart="277" />
    <vehicle id="EW_178" type="typeStraight" route="EW" depart="278" />
    <vehicle id="NS_179" type="typeStraight" route="NS" depart="279" />
    <vehicle id="NS_180" type="typeStraight" route="NS" depart="281" />
    <vehicle id="SN_181" type="typeStraight" route="SN" depart="282" />
    <vehicle id="NE_182" type="typeTurn" route="NE" depart="288" />
    <vehicle id="SW_183" type="typeTurn" route="SW" depart="290" />
    <vehicle id="SN_184" type="typeStraight" route="SN" depart="291" />
    <vehicle id="EW_185" type="typeStraight" route="EW" depart="292" />
    <vehicle id="SN_186" type="typeStraight" route="SN" depart="293" />
    <vehicle id="ES_187" type="typeTurn" route="ES" depart="296" />
    <vehicle id="NS_188" type="typeStraight" route="NS" depart="298" />
    <vehicle id="NE_189" type="typeTurn" route="NE" depart="298" />
    <vehicle id="NS_190" type="typeStraight" route="NS" depart="303" />
    <vehicle id="SN_191" type="typeStraight" route="SN" depart="303" />
    <vehicle id="WN_192" type="typeTurn" route="WN" depart="304" />
    <vehicle id="NS_193" type="typeStraight" route="NS" depart="306" />
    <vehicle id="WN_194" type="typeTurn" route="WN" depart="306" />
    <vehicle id="NE_195" type="typeTurn" route="NE" depart="307" />
    <vehicle id="NE_196" type="typeTurn" route="NE" depart="311" />
    <vehicle id="WE_197" type="typeStraight" route="WE" depart="314" />
    <vehicle id="SW_198" type="typeTurn" route="SW" depart="315" />
    <vehicle id="NS_199" type="typeStraight" route="NS" depart="317" />
    <vehicle id="NE_200" type="typeTurn" route="NE" depart="317" />
    <vehicle id="ES_201" type="typeTurn" route="ES" depart="317" />
    <vehicle id="SW_202" type="typeTurn" route="SW" depart="320" />
    <vehicle id="NS_203" type="typeStraight" route="NS" depart="321" />
    <vehicle id="NE_204" type="typeTurn" route="NE" depart="322" />
    <vehicle id="SW_205" type="typeTurn" route="SW" depart="323" />
    <vehicle id="SN_206" type="typeStraight" route="SN" depart="327" />
    <vehicle id="WN_207" type="typeTurn" route="WN" depart="329" />
    <vehicle id="NS_208" type="typeStraight" route="NS" depart="330" />
    <vehicle id="NE_209" type="typeTurn" route="NE" depart="330" />
    <vehicle id="NS_210" type="typeStraight" route="NS" depart="331" />
    <vehicle id="NE_211" type="typeTurn" route="NE" depart="333" />
    <vehicle id="SN_212" type="typeStraight" route="SN" depart="333" />
    <vehicle id="NE_213" type="typeTurn" route="NE" depart="334" />
    <vehicle id="ES_214" type="typeTurn" route="ES" depart="335" />
    <vehicle id="SN_215" type="typeStraight" route="SN" depart="336" />
    <vehicle id="NE_216" type="typeTurn" route="NE" depart="338" />
    <vehicle id="NE_217" type="typeTurn" route="NE" depart="340" />
    <vehicle id="NE_218" type="typeTurn" route="NE" depart="341" />
    <vehicle id="ES_219" type="typeTurn" route="ES" depart="341" />
    <vehicle id="WE_220" type="typeStraight" route="WE" depart="343" />
    <vehicle id="SW_221" type="typeTurn" route="SW" depart="344" />
    <vehicle id="SW_222" type="typeTurn" route="SW" depart="345" />
    <vehicle id="NE_223" type="typeTurn" route="NE" depart="347" />
    <vehicle id="SN_224" type="typeStraight" route="SN" depart="350" />
    <vehicle id="ES_225" type="typeTurn" route="ES" depart="350" />
    <vehicle id="SN_226" type="typeStraight" route="SN" depart="351" />
    <vehicle id="NE_227" type="typeTurn" route="NE" depart="352" />
    <vehicle id="NE_228" type="typeTurn" route="NE" depart="353" />
    <vehicle id="WE_229" type="typeStraight" route="WE" depart="354" />
    <vehicle id="WE_230" type="typeStraight" route="WE" depart="355" />
    <vehicle id="SN_231" type="typeStraight" route="SN" depart="356" />
    <vehicle id="NE_232" type="typeTurn" route="NE" depart="357" />
    <vehicle id="SW_233" type="typeTurn" route="SW" depart="361" />
    <vehicle id="NS_234" type="typeStraight" route="NS" depart="362" />
    <vehicle id="WN_235" type="typeTurn" route="WN" depart="363" />
    <vehicle id="NS_236" type="typeStraight" route="NS" depart="365" />
    <vehicle id="WE_237" type="typeStraight" route="WE" depart="365" />
    <vehicle id="WE_238" type="typeStraight" route="WE" depart="366" />
    <vehicle id="ES_239" type="typeTurn" route="ES" depart="370" />
    <vehicle id="SW_240" type="typeTurn" route="SW" depart="373" />
    <vehicle id="EW_241" type="typeStraight" route="EW" depart="373" />
    <vehicle id="NE_242" type="typeTurn" route="NE" depart="376" />
    <vehicle id="SW_243" type="typeTurn" route="SW" depart="377" />
    <vehicle id="NS_244" type="typeStraight" route="NS" depart="378" />
    <vehicle id="NE_245" type="typeTurn" route="NE" depart="379" />
    <vehicle id="SW_246" type="typeTurn" route="SW" depart="380" />
    <vehicle id="NE_247" type="typeTurn" route="NE" depart="383" />
    <vehicle id="NE_248" type="typeTurn" route="NE" depart="390" />
    <vehicle id="NE_249" type="typeTurn" route="NE" depart="391" />
    <vehicle id="EW_250" type="typeStraight" route="EW" depart="391" />
    <vehicle id="WN_251" type="typeTurn" route="WN" depart="392" />
    <vehicle id="SW_252" type="typeTurn" route="SW" depart="393" />
    <vehicle id="SN_253" type="typeStraight" route="SN" depart="396" />
    <vehicle id="ES_254" type="typeTurn" route="ES" depart="397" />
    <vehicle id="WE_255" type="typeStraight" route="WE" depart="400" />
    <vehicle id="ES_256" type="typeTurn" route="ES" depart="400" />
    <vehicle id="SW_257" type="typeTurn" route="SW" depart="401" />
    <vehicle id="NE_258" type="typeTurn" route="NE" depart="403" />
    <vehicle id="NE_259" type="typeTurn" route="NE" depart="404" />
    <vehicle id="SN_260" type="typeStraight" route="SN" depart="404" />
    <vehicle id="NS_261" type="typeStraight" route="NS" depart="407" />
    <vehicle id="SN_262" type="typeStraight" route="SN" depart="412" />
    <vehicle id="NE_263" type="typeTurn" route="NE" depart="414" />
    <vehicle id="NS_264" type="typeStraight" route="NS" depart="415" />
    <vehicle id="EW_265" type="typeStraight" route="EW" depart="415" />
    <vehicle id="NE_266" type="typeTurn" route="NE" depart="416" />
    <vehicle id="WN_267" type="typeTurn" route="WN" depart="420" />
    <vehicle id="NE_268" type="typeTurn" route="NE" depart="421" />
    <vehicle id="WN_269" type="typeTurn" route="WN" depart="421" />
    <vehicle id="NS_270" type="typeStraight" route="NS" depart="424" />
    <vehicle id="NE_271" type="typeTurn" route="NE" depart="424" />
    <vehicle id="NE_272" type="typeTurn" route="NE" depart="425" />
    <vehicle id="EW_273" type="typeStraight" route="EW" depart="425" />
    <vehicle id="ES_274" type="typeTurn" route="ES" depart="427" />
    <vehicle id="EW_275" type="typeStraight" route="EW" depart="428" />
    <vehicle id="NE_276" type="typeTurn" route="NE" depart="431" />
    <vehicle id="SW_277" type="typeTurn" route="SW" depart="431" />
    <vehicle id="WN_278" type="typeTurn" route="WN" depart="432" />
    <vehicle id="SW_279" type="typeTurn" route="SW" depart="433" />
    <vehicle id="WN_280" type="typeTurn" route="WN" depart="433" />
    <vehicle id="SN_281" type="typeStraight" route="SN" depart="435" />
    <vehicle id="SW_282" type="typeTurn" route="SW" depart="436" />
    <vehicle id="NE_283" type="typeTurn" route="NE" depart="437" />
    <vehicle id="SN_284" type="typeStraight" route="SN" depart="439" />
    <vehicle id="WN_285" type="typeTurn" route="WN" depart="439" />
    <vehicle id="NS_286" type="typeStraight" route="NS" depart="443" />
    <vehicle id="NE_287" type="typeTurn" route="NE" depart="446" />
    <vehicle id="NS_288" type="typeStraight" route="NS" depart="453" />
    <vehicle id="WE_289" type="typeStraight" route="WE" depart="454" />
    <vehicle id="ES_290" type="typeTurn" route="ES" depart="456" />
    <vehicle id="NE_291" type="typeTurn" route="NE" depart="462" />
    <vehicle id="NS_292" type="typeStraight" route="NS" depart="464" />
    <vehicle id="SW_293" type="typeTurn" route="SW" depart="466" />
    <vehicle id="SW_294" type="typeTurn" route="SW" depart="467" />
    <vehicle id="NE_295" type="typeTurn" route="NE" depart="468" />
    <vehicle id="EW_296" type="typeStraight" route="EW" depart="470" />
    <vehicle id="NS_297" type="typeStraight" route="NS" depart="472" />
    <vehicle id="SW_298" type="typeTurn" route="SW" depart="472" />
    <vehicle id="NS_299" type="typeStraight" route="NS" depart="475" />
    <vehicle id="NE_300" type="typeTurn" route="NE" depart="475" />
    <vehicle id="NE_301" type="typeTurn" route="NE" depart="478" />
    <vehicle id="SN_302" type="typeStraight" route="SN" depart="478" />
    <vehicle id="NS_303" type="typeStraight" route="NS" depart="479" />
    <vehicle id="WE_304" type="typeStraight" route="WE" depart="480" />
    <vehicle id="NE_305" type="typeTurn" route="NE" depart="483" />
    <vehicle id="SN_306" type="typeStraight" route="SN" depart="483" />
    <vehicle id="SW_307" type="typeTurn" route="SW" depart="483" />
    <vehicle id="WN_308" type="typeTurn" route="WN" depart="483" />
    <vehicle id="NS_309" type="typeStraight" route="NS" depart="488" />
    <vehicle id="SN_310" type="typeStraight" route="SN" depart="488" />
    <vehicle id="NS_311" type="typeStraight" route="NS" depart="489" />
    <vehicle id="SN_312" type="typeStraight" route="SN" depart="492" />
    <vehicle id="NS_313" type="typeStraight" route="NS" depart="493" />
    <vehicle id="NE_314" type="typeTurn" route="NE" depart="494" />
    <vehicle id="SN_315" type="typeStraight" route="SN" depart="494" />
    <vehicle id="EW_316" type="typeStraight" route="EW" depart="494" />
    <vehicle id="NS_317" type="typeStraight" route="NS" depart="495" />
    <vehicle id="EW_318" type="typeStraight" route="EW" depart="495" />
    <vehicle id="SN_319" type="typeStraight" route="SN" depart="496" />
    <vehicle id="SN_320" type="typeStraight" route="SN" depart="499" />
    <vehicle id="WN_321" type="typeTurn" route="WN" depart="499" />
    <vehicle id="NS_322" type="typeStraight" route="NS" depart="500" />
    <vehicle id="SN_323" type="typeStraight" route="SN" depart="501" />
    <vehicle id="NS_324" type="typeStraight" route="NS" depart="504" />
    <vehicle id="NE_325" type="typeTurn" route="NE" depart="504" />
    <vehicle id="ES_326" type="typeTurn" route="ES" depart="508" />
    <vehicle id="NS_327" type="typeStraight" route="NS" depart="509" />
    <vehicle id="ES_328" type="typeTurn" route="ES" depart="509" />
    <vehicle id="EW_329" type="typeStraight" route="EW" depart="511" />
    <vehicle id="SW_330" type="typeTurn" route="SW" depart="512" />
    <vehicle id="WN_331" type="typeTurn" route="WN" depart="512" />
    <vehicle id="EW_332" type="typeStraight" route="EW" depart="517" />
    <vehicle id="NS_333" type="typeStraight" route="NS" depart="518" />
    <vehicle id="NS_334" type="typeStraight" route="NS" depart="519" />
    <vehicle id="SW_335" type="typeTurn" route="SW" depart="519" />
    <vehicle id="NS_336" type="typeStraight" route="NS" depart="522" />
    <vehicle id="ES_337" type="typeTurn" route="ES" depart="522" />
    <vehicle id="NS_338" type="typeStraight" route="NS" depart="526" />
    <vehicle id="SN_339" type="typeStraight" route="SN" depart="531" />
    <vehicle id="WE_340" type="typeStraight" route="WE" depart="532" />
    <vehicle id="SW_341" type="typeTurn" route="SW" depart="537" />
    <vehicle id="NS_342" type="typeStraight" route="NS" depart="538" />
    <vehicle id="SN_343" type="typeStraight" route="SN" depart="538" />
    <vehicle id="SW_344" type="typeTurn" route="SW" depart="538" />
    <vehicle id="EW_345" type="typeStraight" route="EW" depart="538" />
    <vehicle id="NE_346" type="typeTurn" route="NE" depart="539" />
    <vehicle id="WE_347" type="typeStraight" route="WE" depart="540" />
    <vehicle id="EW_348" type="typeStraight" route="EW" depart="543" />
    <vehicle id="SW_349" type="typeTurn" route="SW" depart="544" />
    <vehicle id="ES_350" type="typeTurn" route="ES" depart="544" />
    <vehicle id="SW_351" type="typeTurn" route="SW" depart="545" />
    <vehicle id="ES_352" type="typeTurn" route="ES" depart="548" />
    <vehicle id="NS_353" type="typeStraight" route="NS" depart="549" />
    <vehicle id="SW_354" type="typeTurn" route="SW" depart="549" />
    <vehicle id="SW_355" type="typeTurn" route="SW" depart="551" />
    <vehicle id="SW_356" type="typeTurn" route="SW" depart="552" />
    <vehicle id="NE_357" type="typeTurn" route="NE" depart="553" />
    <vehicle id="SW_358" type="typeTurn" route="SW" depart="554" />
    <vehicle id="NE_359" type="typeTurn" route="NE" depart="556" />
    <vehicle id="SW_360" type="typeTurn" route="SW" depart="556" />
    <vehicle id="WE_361" type="typeStraight" route="WE" depart="556" />
    <vehicle id="NE_362" type="typeTurn" route="NE" depart="557" />
    <vehicle id="SW_363" type="typeTurn" route="SW" depart="557" />
    <vehicle id="NS_364" type="typeStraight" route="NS" depart="558" />
    <vehicle id="NE_365" type="typeTurn" route="NE" depart="562" />
    <vehicle id="WN_366" type="typeTurn" route="WN" depart="562" />
    <vehicle id="SW_367" type="typeTurn" route="SW" depart="564" />
    <vehicle id="SW_368" type="typeTurn" route="SW" depart="565" />
    <vehicle id="NE_369" type="typeTurn" route="NE" depart="567" />
    <vehicle id="SW_370" type="typeTurn" route="SW" depart="567" />
    <vehicle id="SW_371" type="typeTurn" route="SW" depart="568" />
    <vehicle id="NS_372" type="typeStraight" route="NS" depart="569" />
    <vehicle id="SN_373" type="typeStraight" route="SN" depart="570" />
    <vehicle id="NE_374" type="typeTurn" route="NE" depart="575" />
    <vehicle id="NE_375" type="typeTurn" route="NE" depart="576" />
    <vehicle id="NS_376" type="typeStraight" route="NS" depart="577" />
    <vehicle id="NS_377" type="typeStraight" route="NS" depart="579" />
    <vehicle id="SN_378" type="typeStraight" route="SN" depart="580" />
    <vehicle id="EW_379" type="typeStraight" route="EW" depart="580" />
    <vehicle id="SW_380" type="typeTurn" route="SW" depart="581" />
    <vehicle id="ES_381" type="typeTurn" route="ES" depart="582" />
    <vehicle id="NE_382" type="typeTurn" route="NE" depart="583" />
    <vehicle id="NE_383" type="typeTurn" route="NE" depart="585" />
    <vehicle id="ES_384" type="typeTurn" route="ES" depart="585" />
    <vehicle id="EW_385" type="typeStraight" route="EW" depart="586" />
    <vehicle id="SN_386" type="typeStraight" route="SN" depart="588" />
    <vehicle id="EW_387" type="typeStraight" route="EW" depart="588" />
    <vehicle id="NS_388" type="typeStraight" route="NS" depart="590" />
    <vehicle id="SW_389" type="typeTurn" route="SW" depart="590" />
    <vehicle id="NS_390" type="typeStraight" route="NS" depart="591" />
    <vehicle id="SN_391" type="typeStraight" route="SN" depart="591" />
    <vehicle id="NS_392" type="typeStraight" route="NS" depart="592" />
    <vehicle id="EW_393" type="typeStraight" route="EW" depart="593" />
    <vehicle id="ES_394" type="typeTurn" route="ES" depart="595" />
    <vehicle id="SN_395" type="typeStraight" route="SN" depart="600" />
    <vehicle id="NS_396" type="typeStraight" route="NS" depart="602" />
    <vehicle id="WE_397" type="typeStraight" route="WE" depart="604" />
    <vehicle id="EW_398" type="typeStraight" route="EW" depart="604" />
    <vehicle id="WN_399" type="typeTurn" route="WN" depart="606" />
    <vehicle id="SN_400" type="typeStraight" route="SN" depart="608" />
    <vehicle id="SN_401" type="typeStraight" route="SN" depart="609" />
    <vehicle id="SN_402" type="typeStraight" route="SN" depart="610" />
    <vehicle id="NS_403" type="typeStraight" route="NS" depart="611" />
    <vehicle id="NE_404" type="typeTurn" route="NE" depart="613" />
    <vehicle id="SN_405" type="typeStraight" route="SN" depart="613" />
    <vehicle id="NE_406" type="typeTurn" route="NE" depart="616" />
    <vehicle id="NE_407" type="typeTurn" route="NE" depart="617" />
    <vehicle id="EW_408" type="typeStraight" route="EW" depart="618" />
    <vehicle id="NE_409" type="typeTurn" route="NE" depart="619" />
    <vehicle id="ES_410" type="typeTurn" route="ES" depart="619" />
    <vehicle id="SW_411" type="typeTurn" route="SW" depart="621" />
    <vehicle id="SN_412" type="typeStraight" route="SN" depart="623" />
    <vehicle id="NE_413" type="typeTurn" route="NE" depart="626" />
    <vehicle id="SN_414" type="typeStraight" route="SN" depart="626" />
    <vehicle id="WE_415" type="typeStraight" route="WE" depart="627" />
    <vehicle id="SW_416" type="typeTurn" route="SW" depart="628" />
    <vehicle id="NS_417" type="typeStraight" route="NS" depart="629" />
    <vehicle id="WE_418" type="typeStraight" route="WE" depart="632" />
    <vehicle id="ES_419" type="typeTurn" route="ES" depart="633" />
    <vehicle id="WE_420" type="typeStraight" route="WE" depart="635" />
    <vehicle id="EW_421" type="typeStraight" route="EW" depart="637" />