<routes>
        <vType id="typeStraight" accel="1" decel="4.5" sigma="0.5" length="5" minGap="2.5" maxSpeed="13.9" guiShape="passenger"/>
        <vType id="typeTurn" accel="1" decel="4.5" sigma="0.5" length="5" minGap="2.5" maxSpeed="13.9" guiShape="passenger"/>

        <route id="WE" edges="1i 2o" />
        <route id="EW" edges="2i 1o " />
        <route id="NS" edges="4i 3o " />
        <route id="SN" edges="3i 4o " />
        <route id="NE" edges="4i 2o" />
        <route id="ES" edges="2i 3o " />
        <route id="SW" edges="3i 1o " />
        <route id="WN" edges="1i 4o " />
    <vehicle id="NE_0" type="typeTurn" route="NE" depart="0" />
    <vehicle id="NE_1" type="typeTurn" route="NE" depart="1" />
    <vehicle id="WE_2" type="typeStraight" route="WE" depart="1" />
    <vehicle id="SW_3" type="typeTurn" route="SW" depart="2" />
    <vehicle id="SN_4" type="typeStraight" route="SN" depart="3" />
    <vehicle id="SW_5" type="typeTurn" route="SW" depart="3" />
    <vehicle id="NE_6" type="typeTurn" route="NE" depart="5" />
    <vehicle id="SW_7" type="typeTurn" route="SW" depart="8" />
    <vehicle id="NS_8" type="typeStraight" route="NS" depart="11" />
    <vehicle id="NE_9" type="typeTurn" route="NE" depart="11" />
    <vehicle id="SN_10" type="typeStraight" route="SN" depart="11" />
    <vehicle id="WE_11" type="typeStraight" route="WE" depart="12" />
    <vehicle id="SN_12" type="typeStraight" route="SN" depart="13" />
    <vehicle id="WE_13" type="typeStraight" route="WE" depart="15" />
    <vehicle id="EW_14" type="typeStraight" route="EW" depart="15" />
    <vehicle id="SW_15" type="typeTurn" route="SW" depart="16" />
    <vehicle id="NS_16" type="typeStraight" route="NS" depart="17" />
    <vehicle id="SW_17" type="typeTurn" route="SW" depart="17" />
    <vehicle id="SN_18" type="typeStraight" route="SN" depart="19" />
    <vehicle id="NS_19" type="typeStraight" route="NS" depart="20" />
    <vehicle id="NE_20" type="typeTurn" route="NE" depart="21" />
    <vehicle id="NS_21" type="typeStraight" route="NS" depart="22" />
    <vehicle id="NS_22" type="typeStraight" route="NS" depart="28" />
    <vehicle id="SW_23" type="typeTurn" route="SW" depart="29" />
    <vehicle id="NS_24" type="typeStraight" route="NS" depart="32" />
    <vehicle id="WN_25" type="typeTurn" route="WN" depart="33" />
    <vehicle id="SN_26" type="typeStraight" route="SN" depart="34" />
    <vehicle id="SW_27" type="typeTurn" route="SW" depart="34" />
    <vehicle id="SN_28" type="typeStraight" route="SN" depart="36" />
    <vehicle id="NE_29" type="typeTurn" route="NE" depart="37" />
    <vehicle id="SN_30" type="typeStraight" route="SN" depart="37" />
    <vehicle id="NS_31" type="typeStraight" route="NS" depart="38" />
    <vehicle id="NE_32" type="typeTurn" route="NE" depart="38" />
    <vehicle id="NE_33" type="typeTurn" route="NE" depart="39" />
    <vehicle id="WE_34" type="typeStraight" route="WE" depart="40" />
    <vehicle id="EW_35" type="typeStraight" route="EW" depart="42" />
    <vehicle id="NE_36" type="typeTurn" route="NE" depart="44" />
    <vehicle id="NS_37" type="typeStraight" route="NS" depart="46" />
    <vehicle id="SN_38" type="typeStraight" route="SN" depart="48" />
    <vehicle id="SN_39" type="typeStraight" route="SN" depart="49" />
    <vehicle id="ES_40" type="typeTurn" route="ES" depart="51" />
    <vehicle id="SW_41" type="typeTurn" route="SW" depart="52" />
    <vehicle id="SW_42" type="typeTurn" route="SW" depart="53" />
    <vehicle id="SW_43" type="typeTurn" route="SW" depart="54" />
    <vehicle id="NE_44" type="typeTurn" route="NE" depart="58" />
    <vehicle id="NE_45" type="typeTurn" route="NE" depart="60" />
    <vehicle id="WN_46" type="typeTurn" route="WN" depart="61" />
    <vehicle id="SW_47" type="typeTurn" route="SW" depart="62" />
    <vehicle id="WN_48" type="typeTurn" route="WN" depart="62" />
    <vehicle id="NS_49" type="typeStraight" route="NS" depart="63" />
    <vehicle id="SN_50" type="typeStraight" route="SN" depart="63" />
    <vehicle id="EW_51" type="typeStraight" route="EW" depart="64" />
    <vehicle id="NS_52" type="typeStraight" route="NS" depart="66" />
    <vehicle id="SN_53" type="typeStraight" route="SN" depart="66" />
    <vehicle id="SW_54" type="typeTurn" route="SW" depart="67" />
    <vehicle id="ES_55" type="typeTurn" route="ES" depart="67" />
    <vehicle id="NS_56" type="typeStraight" route="NS" depart="69" />
    <vehicle id="WN_57" type="typeTurn" route="WN" depart="73" />
    <vehicle id="EW_58" type="typeStraight" route="EW" depart="74" />
    <vehicle id="NS_59" type="typeStraight" route="NS" depart="75" />
    <vehicle id="NS_60" type="typeStraight" route="NS" depart="76" />
    <vehicle id="NE_61" type="typeTurn" route="NE" depart="79" />
    <vehicle id="WN_62" type="typeTurn" route="WN" depart="79" />
    <vehicle id="SW_63" type="typeTurn" route="SW" depart="80" />
    <vehicle id="SW_64" type="typeTurn" route="SW" depart="81" />
    <vehicle id="NS_65" type="typeStraight" route="NS" depart="82" />
    <vehicle id="SN_66" type="typeStraight" route="SN" depart="82" />
    <vehicle id="SW_67" type="typeTurn" route="SW" depart="82" />
    <vehicle id="SW_68" type="typeTurn" route="SW" depart="85" />
    <vehicle id="WE_69" type="typeStraight" route="WE" depart="85" />
    <vehicle id="SW_70" type="typeTurn" route="SW" depart="89" />
    <vehicle id="WE_71" type="typeStraight" route="WE" depart="89" />
    <vehicle id="NS_72" type="typeStraight" route="NS" depart="90" />
    <vehicle id="NS_73" type="typeStraight" route="NS" depart="91" />
    <vehicle id="NE_74" type="typeTurn" route="NE" depart="92" />
    <vehicle id="NS_75" type="typeStraight" route="NS" depart="96" />
    <vehicle id="SW_76" type="typeTurn" route="SW" depart="97" />
    <vehicle id="NE_77" type="typeTurn" route="NE" depart="102" />
    <vehicle id="SN_78" type="typeStraight" route="SN" depart="103" />
    <vehicle id="SW_79" type="typeTurn" route="SW" depart="106" />
    <vehicle id="SN_80" type="typeStraight" route="SN" depart="107" />
    <vehicle id="NS_81" type="typeStraight" route="NS" depart="108" />
    <vehicle id="NE_82" type="typeTurn" route="NE" depart="109" />
    <vehicle id="SN_83" type="typeStraight" route="SN" depart="110" />
    <vehicle id="WE_84" type="typeStraight" route="WE" depart="113" />
    <vehicle id="NE_85" type="typeTurn" route="NE" depart="116" />
    <vehicle id="NE_86" type="typeTurn" route="NE" depart="118" />
    <vehicle id="SW_87" type="typeTurn" route="SW" depart="118" />
    <vehicle id="WE_88" type="typeStraight" route="WE" depart="119" />
    <vehicle id="EW_89" type="typeStraight" route="EW" depart="120" />
    <vehicle id="SW_90" type="typeTurn" route="SW" depart="121" />
    <vehicle id="NS_91" type="typeStraight" route="NS" depart="122" />
    <vehicle id="SW_92" type="typeTurn" route="SW" depart="124" />
    <vehicle id="NS_93" type="typeStraight" route="NS" depart="125" />
    <vehicle id="WN_94" type="typeTurn" route="WN" depart="126" />
    <vehicle id="NS_95" type="typeStraight" route="NS" depart="127" />
    <vehicle id="SN_96" type="typeStraight" route="SN" depart="127" />
    <vehicle id="NS_97" type="typeStraight" route="NS" depart="128" />
    <vehicle id="SN_98" type="typeStraight" route="SN" depart="128" />
    <vehicle id="NE_99" type="typeTurn" route="NE" depart="129" />
    <vehicle id="SN_100" type="typeStraight" route="SN" depart="129" />
    <vehicle id="NE_101" type="typeTurn" route="NE" depart="131" />
    <vehicle id="NS_102" type="typeStraight" route="NS" depart="133" />
    <vehicle id="NE_103" type="typeTurn" route="NE" depart="134" />
    <vehicle id="SW_104" type="typeTurn" route="SW" depart="136" />
    <vehicle id="SN_105" type="typeStraight" route="SN" depart="139" />
    <vehicle id="WN_106" type="typeTurn" route="WN" depart="140" />
    <vehicle id="WN_107" type="typeTurn" route="WN" depart="141" />
    <vehicle id="NE_108" type="typeTurn" route="NE" depart="142" />
    <vehicle id="SW_109" type="typeTurn" route="SW" depart="142" />
    <vehicle id="WN_110" type="typeTurn" route="WN" depart="145" />
    <vehicle id="NS_111" type="typeStraight" route="NS" depart="146" />
    <vehicle id="SW_112" type="typeTurn" route="SW" depart="146" />
    <vehicle id="EW_113" type="typeStraight" route="EW" depart="146" />
    <vehicle id="NS_114" type="typeStraight" route="NS" depart="148" />
    <vehicle id="NE_115" type="typeTurn" route="NE" depart="148" />
    <vehicle id="NS_116" type="typeStraight" route="NS" depart="149" />
    <vehicle id="NE_117" type="typeTurn" route="NE" depart="149" />
    <vehicle id="SN_118" type="typeStraight" route="SN" depart="151" />
    <vehicle id="SN_119" type="typeStraight" route="SN" depart="152" />
    <vehicle id="NS_120" type="typeStraight" route="NS" depart="155" />
    <vehicle id="NS_121" type="typeStraight" route="NS" depart="160" />
    <vehicle id="NE_122" type="typeTurn" route="NE" depart="160" />
    <vehicle id="SN_123" type="typeStraight" route="SN" depart="161" />
    <vehicle id="SW_124" type="typeTurn" route="SW" depart="164" />
    <vehicle id="SN_125" type="typeStraight" route="SN" depart="165" />
    <vehicle id="SW_126" type="typeTurn" route="SW" depart="169" />
    <vehicle id="NS_127" type="typeStraight" route="NS" depart="170" />
    <vehicle id="WN_128" type="typeTurn" route="WN" depart="171" />
    <vehicle id="SW_129" type="typeTurn" route="SW" depart="172" />
    <vehicle id="NS_130" type="typeStraight" route="NS" depart="173" />
    <vehicle id="ES_131" type="typeTurn" route="ES" depart="173" />
    <vehicle id="NS_132" type="typeStraight" route="NS" depart="174" />
    <vehicle id="NE_133" type="typeTurn" route="NE" depart="175" />
    <vehicle id="NS_134" type="typeStraight" route="NS" depart="176" />
    <vehicle id="SW_135" type="typeTurn" route="SW" depart="176" />
    <vehicle id="NE_136" type="typeTurn" route="NE" depart="177" />
    <vehicle id="SW_137" type="typeTurn" route="SW" depart="177" />
    <vehicle id="WN_138" type="typeTurn" route="WN" depart="178" />
    <vehicle id="WN_139" type="typeTurn" route="WN" depart="179" />
    <vehicle id="SN_140" type="typeStraight" route="SN" depart="181" />
    <vehicle id="WE_141" type="typeStraight" route="WE" depart="181" />
    <vehicle id="NS_142" type="typeStraight" route="NS" depart="183" />
    <vehicle id="SN_143" type="typeStraight" route="SN" depart="185" />
    <vehicle id="NE_144" type="typeTurn" route="NE" depart="186" />
    <vehicle id="NS_145" type="typeStraight" route="NS" depart="187" />
    <vehicle id="NE_146" type="typeTurn" route="NE" depart="188" />
    <vehicle id="SN_147" type="typeStraight" route="SN" depart="188" />
    <vehicle id="NE_148" type="typeTurn" route="NE" depart="190" />
    <vehicle id="SN_149" type="typeStraight" route="SN" depart="192" />
    <vehicle id="NS_150" type="typeStraight" route="NS" depart="194" />
    <vehicle id="SN_151" type="typeStraight" route="SN" depart="194" />
    <vehicle id="WE_152" type="typeStraight" route="WE" depart="194" />
    <vehicle id="SN_153" type="typeStraight" route="SN" depart="195" />
    <vehicle id="NE_154" type="typeTurn" route="NE" depart="196" />
    <vehicle id="SW_155" type="typeTurn" route="SW" depart="199" />
    <vehicle id="NS_156" type="typeStraight" route="NS" depart="201" />
    <vehicle id="NE_157" type="typeTurn" route="NE" depart="201" />
    <vehicle id="NS_158" type="typeStraight" route="NS" depart="203" />
    <vehicle id="NE_159" type="typeTurn" route="NE" depart="203" />
    <vehicle id="SW_160" type="typeTurn" route="SW" depart="204" />
    <vehicle id="SN_161" type="typeStraight" route="SN" depart="205" />
    <vehicle id="NE_162" type="typeTurn" route="NE" depart="207" />
    <vehicle id="ES_163" type="typeTurn" route="ES" depart="211" />
    <vehicle id="NS_164" type="typeStraight" route="NS" depart="212" />
    <vehicle id="NE_165" type="typeTurn" route="NE" depart="215" />
    <vehicle id="ES_166" type="typeTurn" route="ES" depart="216" />
    <vehicle id="NE_167" type="typeTurn" route="NE" depart="217" />
    <vehicle id="SN_168" type="typeStraight" route="SN" depart="217" />
    <vehicle id="SW_169" type="typeTurn" route="SW" depart="218" />
    <vehicle id="NE_170" type="typeTurn" route="NE" depart="222" />
    <vehicle id="SW_171" type="typeTurn" route="SW" depart="224" />
    <vehicle id="SN_172" type="typeStraight" route="SN" depart="225" />
    <vehicle id="ES_173" type="typeTurn" route="ES" depart="225" />
    <vehicle id="SW_174" type="typeTurn" route="SW" depart="227" />
    <vehicle id="WE_175" type="typeStraight" route="WE" depart="229" />
    <vehicle id="NS_176" type="typeStraight" route="NS" depart="231" />
    <vehicle id="NE_177" type="typeTurn" route="NE" depart="233" />
    <vehicle id="SN_178" type="typeStraight" route="SN" depart="234" />
    <vehicle id="SN_179" type="typeStraight" route="SN" depart="236" />
    <vehicle id="SN_180" type="typeStraight" route="SN" depart="238" />
    <vehicle id="NS_181" type="typeStraight" route="NS" depart="239" />
    <vehicle id="SW_182" type="typeTurn" route="SW" depart="239" />
    <vehicle id="WE_183" type="typeStraight" route="WE" depart="241" />
    <vehicle id="NE_184" type="typeTurn" route="NE" depart="242" />
    <vehicle id="SW_185" type="typeTurn" route="SW" depart="242" />
    <vehicle id="NE_186" type="typeTurn" route="NE" depart="245" />
    <vehicle id="SN_187" type="typeStraight" route="SN" depart="245" />
    <vehicle id="SN_188" type="typeStraight" route="SN" depart="247" />
    <vehicle id="WN_189" type="typeTurn" route="WN" depart="247" />
    <vehicle id="NS_190" type="typeStraight" route="NS" depart="248" />
    <vehicle id="NS_191" type="typeStraight" route="NS" depart="250" />
    <vehicle id="NE_192" type="typeTurn" route="NE" depart="252" />
    <vehicle id="SW_193" type="typeTurn" route="SW" depart="254" />
    <vehicle id="SN_194" type="typeStraight" route="SN" depart="256" />
    <vehicle id="ES_195" type="typeTurn" route="ES" depart="262" />
    <vehicle id="NS_196" type="typeStraight" route="NS" depart="264" />
    <vehicle id="NS_197" type="typeStraight" route="NS" depart="265" />
    <vehicle id="SN_198" type="typeStraight" route="SN" depart="265" />
    <vehicle id="EW_199" type="typeStraight" route="EW" depart="265" />
    <vehicle id="SW_200" type="typeTurn" route="SW" depart="266" />
    <vehicle id="NS_201" type="typeStraight" route="NS" depart="269" />
    <vehicle id="NE_202" type="typeTurn" route="NE" depart="269" />
    <vehicle id="NS_203" type="typeStraight" route="NS" depart="270" />
    <vehicle id="SN_204" type="typeStraight" route="SN" depart="270" />
    <vehicle id="ES_205" type="typeTurn" route="ES" depart="270" />
    <vehicle id="NS_206" type="typeStraight" route="NS" depart="271" />
    <vehicle id="WE_207" type="typeStraight" route="WE" depart="271" />
    <vehicle id="NE_208" type="typeTurn" route="NE" depart="274" />
    <vehicle id="NE_209" type="typeTurn" route="NE" depart="275" />
    <vehicle id="SN_210" type="typeStraight" route="SN" depart="276" />
    <vehicle id="WN_211" type="typeTurn" route="WN" depart="277" />
    <vehicle id="NE_212" type="typeTurn" route="NE" depart="278" />
    <vehicle id="EW_213" type="typeStraight" route="EW" depart="278" />
    <vehicle id="NS_214" type="typeStraight" route="NS" depart="279" />
    <vehicle id="NS_215" type="typeStraight" route="NS" depart="281" />
    <vehicle id="SN_216" type="typeStraight" route="SN" depart="282" />
    <vehicle id="NE_217" type="typeTurn" route="NE" depart="288" />
    <vehicle id="SW_218" type="typeTurn" route="SW" depart="290" />
    <vehicle id="SN_219" type="typeStraight" route="SN" depart="291" />
    <vehicle id="EW_220" type="typeStraight" route="EW" depart="292" />
    <vehicle id="SN_221" type="typeStraight" route="SN" depart="293" />
    <vehicle id="ES_222" type="typeTurn" route="ES" depart="296" />
    <vehicle id="NS_223" type="typeStraight" route="NS" depart="298" />
    <vehicle id="NE_224" type="typeTurn" route="NE" depart="298" />
    <vehicle id="NS_225" type="typeStraight" route="NS" depart="303" />
    <vehicle id="SN_226" type="typeStraight" route="SN" depart="303" />
    <vehicle id="SW_227" type="typeTurn" route="SW" depart="303" />
    <vehicle id="WN_228" type="typeTurn" route="WN" depart="304" />
    <vehicle id="NS_229" type="typeStraight" route="NS" depart="306" />
    <vehicle id="WN_230" type="typeTurn" route="WN" depart="306" />
    <vehicle id="NE_231" type="typeTurn" route="NE" depart="307" />
    <vehicle id="SW_232" type="typeTurn" route="SW" depart="309" />
    <vehicle id="NE_233" type="typeTurn" route="NE" depart="311" />
    <vehicle id="WE_234" type="typeStraight" route="WE" depart="314" />
    <vehicle id="SW_235" type="typeTurn" route="SW" depart="315" />
    <vehicle id="NS_236" type="typeStraight" route="NS" depart="317" />
    <vehicle id="NE_237" type="typeTurn" route="NE" depart="317" />
    <vehicle id="ES_238" type="typeTurn" route="ES" depart="317" />
    <vehicle id="SW_239" type="typeTurn" route="SW" depart="318" />
    <vehicle id="SW_240" type="typeTurn" route="SW" depart="320" />
    <vehicle id="NS_241" type="typeStraight" route="NS" depart="321" />
    <vehicle id="NE_242" type="typeTurn" route="NE" depart="322" />
    <vehicle id="NE_243" type="typeTurn" route="NE" depart="323" />
    <vehicle id="SW_244" type="typeTurn" route="SW" depart="323" />
    <vehicle id="SW_245" type="typeTurn" route="SW" depart="325" />
    <vehicle id="SN_246" type="typeStraight" route="SN" depart="327" />
    <vehicle id="WN_247" type="typeTurn" route="WN" depart="329" />
    <vehicle id="NS_248" type="typeStraight" route="NS" depart="330" />
    <vehicle id="NE_249" type="typeTurn" route="NE" depart="330" />
    <vehicle id="NS_250" type="typeStraight" route="NS" depart="331" />
    <vehicle id="NE_251" type="typeTurn" route="NE" depart="333" />
    <vehicle id="SN_252" type="typeStraight" route="SN" depart="333" />
    <vehicle id="NE_253" type="typeTurn" route="NE" depart="334" />
    <vehicle id="SN_254" type="typeStraight" route="SN" depart="335" />
    <vehicle id="ES_255" type="typeTurn" route="ES" depart="335" />
    <vehicle id="SN_256" type="typeStraight" route="SN" depart="336" />
    <vehicle id="NE_257" type="typeTurn" route="NE" depart="338" />
    <vehicle id="NE_258" type="typeTurn" route="NE" depart="340" />
    <vehicle id="NE_259" type="typeTurn" route="NE" depart="341" />
    <vehicle id="ES_260" type="typeTurn" route="ES" depart="341" />
    <vehicle id="WE_261" type="typeStraight" route="WE" depart="343" />
    <vehicle id="SW_262" type="typeTurn" route="SW" depart="344" />
    <vehicle id="SW_263" type="typeTurn" route="SW" depart="345" />
    <vehicle id="NE_264" type="typeTurn" route="NE" depart="347" />
    <vehicle id="SN_265" type="typeStraight" route="SN" depart="350" />
    <vehicle id="ES_266" type="typeTurn" route="ES" depart="350" />
    <vehicle id="SN_267" type="typeStraight" route="SN" depart="351" />
    <vehicle id="NE_268" type="typeTurn" route="NE" depart="352" />
    <vehicle id="NS_269" type="typeStraight" route="NS" depart="353" />
    <vehicle id="NE_270" type="typeTurn" route="NE" depart="353" />
    <vehicle id="WE_271" type="typeStraight" route="WE" depart="354" />
    <vehicle id="NS_272" type="typeStraight" route="NS" depart="355" />
    <vehicle id="WE_273" type="typeStraight" route="WE" depart="355" />
    <vehicle id="SN_274" type="typeStraight" route="SN" depart="356" />
    <vehicle id="NE_275" type="typeTurn" route="NE" depart="357" />
    <vehicle id="NE_276" type="typeTurn" route="NE" depart="358" />
    <vehicle id="SW_277" type="typeTurn" route="SW" depart="361" />
    <vehicle id="NS_278" type="typeStraight" route="NS" depart="362" />
    <vehicle id="WN_279" type="typeTurn" route="WN" depart="363" />
    <vehicle id="NS_280" type="typeStraight" route="NS" depart="365" />
    <vehicle id="WE_281" type="typeStraight" route="WE" depart="365" />
    <vehicle id="WE_282" type="typeStraight" route="WE" depart="366" />
    <vehicle id="NS_283" type="typeStraight" route="NS" depart="368" />
    <vehicle id="NS_284" type="typeStraight" route="NS" depart="370" />
    <vehicle id="ES_285" type="typeTurn" route="ES" depart="370" />
    <vehicle id="SW_286" type="typeTurn" route="SW" depart="373" />
    <vehicle id="EW_287" type="typeStraight" route="EW" depart="373" />
    <vehicle id="NE_288" type="typeTurn" route="NE" depart="376" />
    <vehicle id="SW_289" type="typeTurn" route="SW" depart="377" />
    <vehicle id="NS_290" type="typeStraight" route="NS" depart="378" />
    <vehicle id="NE_291" type="typeTurn" route="NE" depart="379" />
    <vehicle id="SW_292" type="typeTurn" route="SW" depart="380" />
    <vehicle id="NE_293" type="typeTurn" route="NE" depart="383" />
    <vehicle id="SW_294" type="typeTurn" route="SW" depart="389" />
    <vehicle id="NE_295" type="typeTurn" route="NE" depart="390" />
    <vehicle id="NE_296" type="typeTurn" route="NE" depart="391" />
    <vehicle id="SW_297" type="typeTurn" route="SW" depart="391" />
    <vehicle id="EW_298" type="typeStraight" route="EW" depart="391" />
    <vehicle id="WN_299" type="typeTurn" route="WN" depart="392" />
    <vehicle id="SW_300" type="typeTurn" route="SW" depart="393" />
    <vehicle id="SN_301" type="typeStraight" route="SN" depart="396" />
    <vehicle id="ES_302" type="typeTurn" route="ES" depart="397" />
    <vehicle id="WE_303" type="typeStraight" route="WE" depart="400" />
    <vehicle id="ES_304" type="typeTurn" route="ES" depart="400" />
    <vehicle id="SW_305" type="typeTurn" route="SW" depart="401" />
    <vehicle id="NE_306" type="typeTurn" route="NE" depart="403" />
    <vehicle id="NE_307" type="typeTurn" route="NE" depart="404" />
    <vehicle id="SN_308" type="typeStraight" route="SN" depart="404" />
    <vehicle id="SN_309" type="typeStraight" route="SN" depart="405" />
    <vehicle id="NS_310" type="typeStraight" route="NS" depart="407" />
    <vehicle id="NS_311" type="typeStraight" route="NS" depart="409" />
    <vehicle id="SN_312" type="typeStraight" route="SN" depart="412" />
    <vehicle id="NE_313" type="typeTurn" route="NE" depart="414" />
    <vehicle id="NS_314" type="typeStraight" route="NS" depart="415" />
    <vehicle id="EW_315" type="typeStraight" route="EW" depart="415" />
    <vehicle id="NE_316" type="typeTurn" route="NE" depart="416" />
    <vehicle id="SN_317" type="typeStraight" route="SN" depart="417" />
    <vehicle id="WN_318" type="typeTurn" route="WN" depart="420" />
    <vehicle id="NE_319" type="typeTurn" route="NE" depart="421" />
    <vehicle id="WN_320" type="typeTurn" route="WN" depart="421" />
    <vehicle id="SW_321" type="typeTurn" route="SW" depart="423" />
    <vehicle id="NS_322" type="typeStraight" route="NS" depart="424" />
    <vehicle id="NE_323" type="typeTurn" route="NE" depart="424" />
    <vehicle id="NE_324" type="typeTurn" route="NE" depart="425" />
    <vehicle id="EW_325" type="typeStraight" route="EW" depart="425" />
    <vehicle id="SW_326" type="typeTurn" route="SW" depart="426" />
    <vehicle id="ES_327" type="typeTurn" route="ES" depart="427" />
    <vehicle id="EW_328" type="typeStraight" route="EW" depart="428" />
    <vehicle id="NE_329" type="typeTurn" route="NE" depart="431" />
    <vehicle id="SW_330" type="typeTurn" route="SW" depart="431" />
    <vehicle id="WN_331" type="typeTurn" route="WN" depart="432" />
    <vehicle id="NE_332" type="typeTurn" route="NE" depart="433" />
    <vehicle id="SW_333" type="typeTurn" route="SW" depart="433" />
    <vehicle id="WN_334" type="typeTurn" route="WN" depart="433" />
    <vehicle id="SN_335" type="typeStraight" route="SN" depart="435" />
    <vehicle id="SW_336" type="typeTurn" route="SW" depart="436" />
    <vehicle id="NE_337" type="typeTurn" route="NE" depart="437" />
    <vehicle id="SN_338" type="typeStraight" route="SN" depart="439" />
    <vehicle id="WN_339" type="typeTurn" route="WN" depart="439" />
    <vehicle id="NS_340" type="typeStraight" route="NS" depart="443" />
    <vehicle id="SN_341" type="typeStraight" route="SN" depart="443" />
    <vehicle id="NE_342" type="typeTurn" route="NE" depart="446" />
    <vehicle id="SN_343" type="typeStraight" route="SN" depart="447" />
    <vehicle id="NS_344" type="typeStraight" route="NS" depart="453" />
    <vehicle id="NE_345" type="typeTurn" route="NE" depart="453" />
    <vehicle id="WE_346" type="typeStraight" route="WE" depart="454" />
    <vehicle id="ES_347" type="typeTurn" route="ES" depart="456" />
    <vehicle id="NE_348" type="typeTurn" route="NE" depart="462" />
    <vehicle id="NS_349" type="typeStraight" route="NS" depart="464" />
    <vehicle id="SW_350" type="typeTurn" route="SW" depart="466" />
    <vehicle id="SW_351" type="typeTurn" route="SW" depart="467" />
    <vehicle id="NE_352" type="typeTurn" route="NE" depart="468" />
    <vehicle id="EW_353" type="typeStraight" route="EW" depart="470" />
    <vehicle id="NS_354" type="typeStraight" route="NS" depart="472" />
    <vehicle id="SW_355" type="typeTurn" route="SW" depart="472" />
    <vehicle id="SN_356" type="typeStraight" route="SN" depart="473" />
    <vehicle id="NS_357" type="typeStraight" route="NS" depart="475" />
    <vehicle id="NE_358" type="typeTurn" route="NE" depart="475" />
    <vehicle id="NE_359" type="typeTurn" route="NE" depart="478" />
    <vehicle id="SN_360" type="typeStraight" route="SN" depart="478" />
    <vehicle id="NS_361" type="typeStraight" route="NS" depart="479" />
    <vehicle id="WE_362" type="typeStraight" route="WE" depart="480" />
    <vehicle id="SN_363" type="typeStraight" route="SN" depart="481" />
    <vehicle id="NE_364" type="typeTurn" route="NE" depart="483" />
    <vehicle id="SN_365" type="typeStraight" route="SN" depart="483" />
    <vehicle id="SW_366" type="typeTurn" route="SW" depart="483" />
    <vehicle id="WN_367" type="typeTurn" route="WN" depart="483" />
    <vehicle id="NS_368" type="typeStraight" route="NS" depart="488" />
    <vehicle id="SN_369" type="typeStraight" route="SN" depart="488" />
    <vehicle id="NS_370" type="typeStraight" route="NS" depart="489" />
    <vehicle id="NS_371" type="typeStraight" route="NS" depart="492" />
    <vehicle id="SN_372" type="typeStraight" route="SN" depart="492" />
    <vehicle id="NS_373" type="typeStraight" route="NS" depart="493" />
    <vehicle id="NE_374" type="typeTurn" route="NE" depart="494" />
    <vehicle id="SN_375" type="typeStraight" route="SN" depart="494" />
    <vehicle id="EW_376" type="typeStraight" route="EW" depart="494" />
    <vehicle id="NS_377" type="typeStraight" route="NS" depart="495" />
    <vehicle id="EW_378" type="typeStraight" route="EW" depart="495" />
    <vehicle id="SN_379" type="typeStraight" route="SN" depart="496" />
    <vehicle id="NE_380" type="typeTurn" route="NE" depart="499" />
    <vehicle id="SN_381" type="typeStraight" route="SN" depart="499" />
    <vehicle id="WN_382" type="typeTurn" route="WN" depart="499" />
    <vehicle id="NS_383" type="typeStraight" route="NS" depart="500" />
    <vehicle id="SN_384" type="typeStraight" route="SN" depart="500" />
    <vehicle id="SN_385" type="typeStraight" route="SN" depart="501" />
    <vehicle id="NS_386" type="typeStraight" route="NS" depart="504" />
    <vehicle id="NE_387" type="typeTurn" route="NE" depart="504" />
    <vehicle id="ES_388" type="typeTurn" route="ES" depart="508" />
    <vehicle id="NS_389" type="typeStraight" route="NS" depart="509" />
    <vehicle id="NE_390" type="typeTurn" route="NE" depart="509" />
    <vehicle id="ES_391" type="typeTurn" route="ES" depart="509" />
    <vehicle id="EW_392" type="typeStraight" route="EW" depart="511" />
    <vehicle id="SW_393" type="typeTurn" route="SW" depart="512" />
    <vehicle id="WN_394" type="typeTurn" route="WN" depart="512" />
    <vehicle id="EW_395" type="typeStraight" route="EW" depart="517" />
    <vehicle id="NS_396" type="typeStraight" route="NS" depart="518" />
    <vehicle id="NS_397" type="typeStraight" route="NS" depart="519" />
    <vehicle id="SW_398" type="typeTurn" route="SW" depart="519" />
    <vehicle id="NS_399" type="typeStraight" route="NS" depart="522" />
    <vehicle id="ES_400" type="typeTurn" route="ES" depart="522" />
    <vehicle id="NS_401" type="typeStraight" route="NS" depart="526" />
    <vehicle id="SN_402" type="typeStraight" route="SN" depart="528" />
    <vehicle id="SN_403" type="typeStraight" route="SN" depart="529" />
    <vehicle id="SN_404" type="typeStraight" route="SN" depart="531" />
    <vehicle id="WE_405" type="typeStraight" route="WE" depart="532" />
    <vehicle id="SW_406" type="typeTurn" route="SW" depart="537" />
    <vehicle id="NS_407" type="typeStraight" route="NS" depart="538" />
    <vehicle id="SN_408" type="typeStraight" route="SN" depart="538" />
    <vehicle id="SW_409" type="typeTurn" route="SW" depart="538" />
    <vehicle id="EW_410" type="typeStraight" route="EW" depart="538" />
    <vehicle id="NE_411" type="typeTurn" route="NE" depart="539" />
    <vehicle id="SN_412" type="typeStraight" route="SN" depart="540" />
    <vehicle id="WE_413" type="typeStraight" route="WE" depart="540" />
    <vehicle id="EW_414" type="typeStraight" route="EW" depart="543" />
    <vehicle id="SW_415" type="typeTurn" route="SW" depart="544" />
    <vehicle id="ES_416" type="typeTurn" route="ES" depart="544" />
    <vehicle id="SW_417" type="typeTurn" route="SW" depart="545" />
    <vehicle id="ES_418" type="typeTurn" route="ES" depart="548" />
    <vehicle id="NS_419" type="typeStraight" route="NS" depart="549" />
    <vehicle id="SW_420" type="typeTurn" route="SW" depart="549" />
    <vehicle id="SW_421" type="typeTurn" route="SW" depart="551" />
    <vehicle id="SW_422" type="typeTurn" route="SW" depart="552" />