<routes>
        <vType id="typeStraight" accel="1" decel="4.5" sigma="0.5" length="5" minGap="2.5" maxSpeed="13.9" guiShape="passenger"/>
        <vType id="typeTurn" accel="1" decel="4.5" sigma="0.5" length="5" minGap="2.5" maxSpeed="13.9" guiShape="passenger"/>

        <route id="WE" edges="1i 2o" />
        <route id="EW" edges="2i 1o " />
        <route id="NS" edges="4i 3o " />
        <route id="SN" edges="3i 4o " />
        <route id="NE" edges="4i 2o" />
        <route id="ES" edges="2i 3o " />
        <route id="SW" edges="3i 1o " />
        <route id="WN" edges="1i 4o " />
    <vehicle id="EW_0" type="typeStraight" route="EW" depart="0" />
    <vehicle id="WN_1" type="typeTurn" route="WN" depart="0" />
    <vehicle id="EW_2" type="typeStraight" route="EW" depart="1" />
    <vehicle id="NE_3" type="typeTurn" route="NE" depart="1" />
    <vehicle id="SN_4" type="typeStraight" route="SN" depart="2" />
    <vehicle id="NS_5" type="typeStraight" route="NS" depart="3" />
    <vehicle id="SN_6" type="typeStraight" route="SN" depart="3" />
    <vehicle id="EW_7" type="typeStraight" route="EW" depart="5" />
    <vehicle id="NE_8" type="typeTurn" route="NE" depart="5" />
    <vehicle id="SN_9" type="typeStraight" route="SN" depart="8" />
    <vehicle id="WE_10" type="typeStraight" route="WE" depart="11" />
    <vehicle id="EW_11" type="typeStraight" route="EW" depart="11" />
    <vehicle id="NS_12" type="typeStraight" route="NS" depart="11" />
    <vehicle id="SW_13" type="typeTurn" route="SW" depart="11" />
    <vehicle id="NE_14" type="typeTurn" route="NE" depart="12" />
    <vehicle id="NS_15" type="typeStraight" route="NS" depart="13" />
    <vehicle id="NE_16" type="typeTurn" route="NE" depart="15" />
    <vehicle id="SW_17" type="typeTurn" route="SW" depart="15" />
    <vehicle id="SN_18" type="typeStraight" route="SN" depart="16" />
    <vehicle id="SW_19" type="typeTurn" route="SW" depart="16" />
    <vehicle id="WE_20" type="typeStraight" route="WE" depart="17" />
    <vehicle id="SN_21" type="typeStraight" route="SN" depart="17" />
    <vehicle id="NS_22" type="typeStraight" route="NS" depart="19" />
    <vehicle id="WE_23" type="typeStraight" route="WE" depart="20" />
    <vehicle id="ES_24" type="typeTurn" route="ES" depart="20" />
    <vehicle id="EW_25" type="typeStraight" route="EW" depart="21" />
    <vehicle id="WE_26" type="typeStraight" route="WE" depart="22" />
    <vehicle id="WN_27" type="typeTurn" route="WN" depart="22" />
    <vehicle id="ES_28" type="typeTurn" route="ES" depart="24" />
    <vehicle id="WN_29" type="typeTurn" route="WN" depart="25" />
    <vehicle id="WE_30" type="typeStraight" route="WE" depart="28" />
    <vehicle id="SW_31" type="typeTurn" route="SW" depart="28" />
    <vehicle id="SN_32" type="typeStraight" route="SN" depart="29" />
    <vehicle id="NE_33" type="typeTurn" route="NE" depart="31" />
    <vehicle id="WE_34" type="typeStraight" route="WE" depart="32" />
    <vehicle id="ES_35" type="typeTurn" route="ES" depart="33" />
    <vehicle id="NS_36" type="typeStraight" route="NS" depart="34" />
    <vehicle id="SN_37" type="typeStraight" route="SN" depart="34" />
    <vehicle id="WN_38" type="typeTurn" route="WN" depart="35" />
    <vehicle id="NS_39" type="typeStraight" route="NS" depart="36" />
    <vehicle id="EW_40" type="typeStraight" route="EW" depart="37" />
    <vehicle id="NS_41" type="typeStraight" route="NS" depart="37" />
    <vehicle id="WE_42" type="typeStraight" route="WE" depart="38" />
    <vehicle id="EW_43" type="typeStraight" route="EW" depart="38" />
    <vehicle id="EW_44" type="typeStraight" route="EW" depart="39" />
    <vehicle id="NE_45" type="typeTurn" route="NE" depart="40" />
    <vehicle id="SW_46" type="typeTurn" route="SW" depart="42" />
    <vehicle id="EW_47" type="typeStraight" route="EW" depart="44" />
    <vehicle id="WE_48" type="typeStraight" route="WE" depart="46" />
    <vehicle id="WN_49" type="typeTurn" route="WN" depart="46" />
    <vehicle id="NS_50" type="typeStraight" route="NS" depart="48" />
    <vehicle id="NS_51" type="typeStraight" route="NS" depart="49" />
    <vehicle id="SW_52" type="typeTurn" route="SW" depart="50" />
    <vehicle id="WN_53" type="typeTurn" route="WN" depart="51" />
    <vehicle id="SN_54" type="typeStraight" route="SN" depart="52" />
    <vehicle id="SN_55" type="typeStraight" route="SN" depart="53" />
    <vehicle id="SN_56" type="typeStraight" route="SN" depart="54" />
    <vehicle id="NE_57" type="typeTurn" route="NE" depart="57" />
    <vehicle id="EW_58" type="typeStraight" route="EW" depart="58" />
    <vehicle id="ES_59" type="typeTurn" route="ES" depart="58" />
    <vehicle id="EW_60" type="typeStraight" route="EW" depart="60" />
    <vehicle id="ES_61" type="typeTurn" route="ES" depart="61" />
    <vehicle id="SN_62" type="typeStraight" route="SN" depart="62" />
    <vehicle id="ES_63" type="typeTurn" route="ES" depart="62" />
    <vehicle id="WE_64" type="typeStraight" route="WE" depart="63" />
    <vehicle id="NS_65" type="typeStraight" route="NS" depart="63" />
    <vehicle id="NE_66" type="typeTurn" route="NE" depart="63" />
    <vehicle id="ES_67" type="typeTurn" route="ES" depart="64" />
    <vehicle id="SW_68" type="typeTurn" route="SW" depart="64" />
    <vehicle id="WE_69" type="typeStraight" route="WE" depart="66" />
    <vehicle id="NS_70" type="typeStraight" route="NS" depart="66" />
    <vehicle id="SN_71" type="typeStraight" route="SN" depart="67" />
    <vehicle id="WN_72" type="typeTurn" route="WN" depart="67" />
    <vehicle id="ES_73" type="typeTurn" route="ES" depart="68" />
    <vehicle id="WE_74" type="typeStraight" route="WE" depart="69" />
    <vehicle id="WN_75" type="typeTurn" route="WN" depart="72" />
    <vehicle id="ES_76" type="typeTurn" route="ES" depart="73" />
    <vehicle id="SW_77" type="typeTurn" route="SW" depart="74" />
    <vehicle id="WE_78" type="typeStraight" route="WE" depart="75" />
    <vehicle id="WE_79" type="typeStraight" route="WE" depart="76" />
    <vehicle id="EW_80" type="typeStraight" route="EW" depart="79" />
    <vehicle id="ES_81" type="typeTurn" route="ES" depart="79" />
    <vehicle id="SN_82" type="typeStraight" route="SN" depart="80" />
    <vehicle id="SN_83" type="typeStraight" route="SN" depart="81" />
    <vehicle id="WE_84" type="typeStraight" route="WE" depart="82" />
    <vehicle id="NS_85" type="typeStraight" route="NS" depart="82" />
    <vehicle id="SN_86" type="typeStraight" route="SN" depart="82" />
    <vehicle id="SN_87" type="typeStraight" route="SN" depart="85" />
    <vehicle id="NE_88" type="typeTurn" route="NE" depart="85" />
    <vehicle id="WN_89" type="typeTurn" route="WN" depart="87" />
    <vehicle id="SN_90" type="typeStraight" route="SN" depart="89" />
    <vehicle id="NE_91" type="typeTurn" route="NE" depart="89" />
    <vehicle id="WE_92" type="typeStraight" route="WE" depart="90" />
    <vehicle id="WE_93" type="typeStraight" route="WE" depart="91" />
    <vehicle id="EW_94" type="typeStraight" route="EW" depart="92" />
    <vehicle id="WE_95" type="typeStraight" route="WE" depart="96" />
    <vehicle id="WN_96" type="typeTurn" route="WN" depart="96" />
    <vehicle id="SN_97" type="typeStraight" route="SN" depart="97" />
    <vehicle id="EW_98" type="typeStraight" route="EW" depart="102" />
    <vehicle id="NS_99" type="typeStraight" route="NS" depart="103" />
    <vehicle id="SN_100" type="typeStraight" route="SN" depart="106" />
    <vehicle id="NE_101" type="typeTurn" route="NE" depart="106" />
    <vehicle id="NS_102" type="typeStraight" route="NS" depart="107" />
    <vehicle id="WE_103" type="typeStraight" route="WE" depart="108" />
    <vehicle id="EW_104" type="typeStraight" route="EW" depart="109" />
    <vehicle id="NS_105" type="typeStraight" route="NS" depart="110" />
    <vehicle id="NE_106" type="typeTurn" route="NE" depart="113" />
    <vehicle id="EW_107" type="typeStraight" route="EW" depart="116" />
    <vehicle id="EW_108" type="typeStraight" route="EW" depart="118" />
    <vehicle id="SN_109" type="typeStraight" route="SN" depart="118" />
    <vehicle id="NE_110" type="typeTurn" route="NE" depart="119" />
    <vehicle id="SW_111" type="typeTurn" route="SW" depart="120" />
    <vehicle id="SN_112" type="typeStraight" route="SN" depart="121" />
    <vehicle id="WE_113" type="typeStraight" route="WE" depart="122" />
    <vehicle id="NE_114" type="typeTurn" route="NE" depart="122" />
    <vehicle id="WN_115" type="typeTurn" route="WN" depart="123" />
    <vehicle id="SN_116" type="typeStraight" route="SN" depart="124" />
    <vehicle id="WE_117" type="typeStraight" route="WE" depart="125" />
    <vehicle id="ES_118" type="typeTurn" route="ES" depart="126" />
    <vehicle id="WE_119" type="typeStraight" route="WE" depart="127" />
    <vehicle id="NS_120" type="typeStraight" route="NS" depart="127" />
    <vehicle id="WE_121" type="typeStraight" route="WE" depart="128" />
    <vehicle id="NS_122" type="typeStraight" route="NS" depart="128" />
    <vehicle id="EW_123" type="typeStraight" route="EW" depart="129" />
    <vehicle id="NS_124" type="typeStraight" route="NS" depart="129" />
    <vehicle id="WN_125" type="typeTurn" route="WN" depart="129" />
    <vehicle id="EW_126" type="typeStraight" route="EW" depart="131" />
    <vehicle id="WN_127" type="typeTurn" route="WN" depart="131" />
    <vehicle id="ES_128" type="typeTurn" route="ES" depart="132" />
    <vehicle id="SW_129" type="typeTurn" route="SW" depart="132" />
    <vehicle id="WE_130" type="typeStraight" route="WE" depart="133" />
    <vehicle id="EW_131" type="typeStraight" route="EW" depart="134" />
    <vehicle id="ES_132" type="typeTurn" route="ES" depart="135" />
    <vehicle id="SN_133" type="typeStraight" route="SN" depart="136" />
    <vehicle id="ES_134" type="typeTurn" route="ES" depart="136" />
    <vehicle id="SW_135" type="typeTurn" route="SW" depart="136" />
    <vehicle id="NS_136" type="typeStraight" route="NS" depart="139" />
    <vehicle id="ES_137" type="typeTurn" route="ES" depart="140" />
    <vehicle id="ES_138" type="typeTurn" route="ES" depart="141" />
    <vehicle id="EW_139" type="typeStraight" route="EW" depart="142" />
    <vehicle id="SN_140" type="typeStraight" route="SN" depart="142" />
    <vehicle id="NE_141" type="typeTurn" route="NE" depart="143" />
    <vehicle id="ES_142" type="typeTurn" route="ES" depart="143" />
    <vehicle id="ES_143" type="typeTurn" route="ES" depart="145" />
    <vehicle id="WE_144" type="typeStraight" route="WE" depart="146" />
    <vehicle id="SN_145" type="typeStraight" route="SN" depart="146" />
    <vehicle id="SW_146" type="typeTurn" route="SW" depart="146" />
    <vehicle id="SW_147" type="typeTurn" route="SW" depart="147" />
    <vehicle id="WE_148" type="typeStraight" route="WE" depart="148" />
    <vehicle id="EW_149" type="typeStraight" route="EW" depart="148" />
    <vehicle id="WE_150" type="typeStraight" route="WE" depart="149" />
    <vehicle id="EW_151" type="typeStraight" route="EW" depart="149" />
    <vehicle id="WN_152" type="typeTurn" route="WN" depart="149" />
    <vehicle id="NS_153" type="typeStraight" route="NS" depart="151" />
    <vehicle id="NS_154" type="typeStraight" route="NS" depart="152" />
    <vehicle id="NE_155" type="typeTurn" route="NE" depart="154" />
    <vehicle id="WE_156" type="typeStraight" route="WE" depart="155" />
    <vehicle id="NE_157" type="typeTurn" route="NE" depart="155" />
    <vehicle id="SW_158" type="typeTurn" route="SW" depart="155" />
    <vehicle id="ES_159" type="typeTurn" route="ES" depart="157" />
    <vehicle id="WE_160" type="typeStraight" route="WE" depart="160" />
    <vehicle id="EW_161" type="typeStraight" route="EW" depart="160" />
    <vehicle id="NS_162" type="typeStraight" route="NS" depart="161" />
    <vehicle id="SN_163" type="typeStraight" route="SN" depart="164" />
    <vehicle id="NE_164" type="typeTurn" route="NE" depart="164" />
    <vehicle id="NS_165" type="typeStraight" route="NS" depart="165" />
    <vehicle id="SN_166" type="typeStraight" route="SN" depart="169" />
    <vehicle id="WE_167" type="typeStraight" route="WE" depart="170" />
    <vehicle id="ES_168" type="typeTurn" route="ES" depart="171" />
    <vehicle id="SW_169" type="typeTurn" route="SW" depart="171" />
    <vehicle id="SN_170" type="typeStraight" route="SN" depart="172" />
    <vehicle id="WE_171" type="typeStraight" route="WE" depart="173" />
    <vehicle id="WN_172" type="typeTurn" route="WN" depart="173" />
    <vehicle id="WE_173" type="typeStraight" route="WE" depart="174" />
    <vehicle id="EW_174" type="typeStraight" route="EW" depart="175" />
    <vehicle id="WE_175" type="typeStraight" route="WE" depart="176" />
    <vehicle id="SN_176" type="typeStraight" route="SN" depart="176" />
    <vehicle id="EW_177" type="typeStraight" route="EW" depart="177" />
    <vehicle id="SN_178" type="typeStraight" route="SN" depart="177" />
    <vehicle id="ES_179" type="typeTurn" route="ES" depart="178" />
    <vehicle id="ES_180" type="typeTurn" route="ES" depart="179" />
    <vehicle id="SW_181" type="typeTurn" route="SW" depart="180" />
    <vehicle id="NS_182" type="typeStraight" route="NS" depart="181" />
    <vehicle id="NE_183" type="typeTurn" route="NE" depart="181" />
    <vehicle id="WE_184" type="typeStraight" route="WE" depart="183" />
    <vehicle id="ES_185" type="typeTurn" route="ES" depart="184" />
    <vehicle id="NS_186" type="typeStraight" route="NS" depart="185" />
    <vehicle id="EW_187" type="typeStraight" route="EW" depart="186" />
    <vehicle id="WE_188" type="typeStraight" route="WE" depart="187" />
    <vehicle id="EW_189" type="typeStraight" route="EW" depart="188" />
    <vehicle id="NS_190" type="typeStraight" route="NS" depart="188" />
    <vehicle id="EW_191" type="typeStraight" route="EW" depart="190" />
    <vehicle id="NS_192" type="typeStraight" route="NS" depart="192" />
    <vehicle id="WN_193" type="typeTurn" route="WN" depart="192" />
    <vehicle id="WE_194" type="typeStraight" route="WE" depart="194" />
    <vehicle id="NS_195" type="typeStraight" route="NS" depart="194" />
    <vehicle id="NE_196" type="typeTurn" route="NE" depart="194" />
    <vehicle id="NS_197" type="typeStraight" route="NS" depart="195" />
    <vehicle id="EW_198" type="typeStraight" route="EW" depart="196" />
    <vehicle id="SW_199" type="typeTurn" route="SW" depart="197" />
    <vehicle id="SN_200" type="typeStraight" route="SN" depart="199" />
    <vehicle id="WE_201" type="typeStraight" route="WE" depart="201" />
    <vehicle id="EW_202" type="typeStraight" route="EW" depart="201" />
    <vehicle id="WE_203" type="typeStraight" route="WE" depart="203" />
    <vehicle id="EW_204" type="typeStraight" route="EW" depart="203" />
    <vehicle id="SN_205" type="typeStraight" route="SN" depart="204" />
    <vehicle id="NS_206" type="typeStraight" route="NS" depart="205" />
    <vehicle id="EW_207" type="typeStraight" route="EW" depart="207" />
    <vehicle id="WN_208" type="typeTurn" route="WN" depart="207" />
    <vehicle id="WN_209" type="typeTurn" route="WN" depart="209" />
    <vehicle id="WN_210" type="typeTurn" route="WN" depart="211" />
    <vehicle id="WE_211" type="typeStraight" route="WE" depart="212" />
    <vehicle id="EW_212" type="typeStraight" route="EW" depart="215" />
    <vehicle id="WN_213" type="typeTurn" route="WN" depart="216" />
    <vehicle id="EW_214" type="typeStraight" route="EW" depart="217" />
    <vehicle id="NS_215" type="typeStraight" route="NS" depart="217" />
    <vehicle id="SN_216" type="typeStraight" route="SN" depart="218" />
    <vehicle id="EW_217" type="typeStraight" route="EW" depart="222" />
    <vehicle id="SN_218" type="typeStraight" route="SN" depart="224" />
    <vehicle id="NS_219" type="typeStraight" route="NS" depart="225" />
    <vehicle id="WN_220" type="typeTurn" route="WN" depart="225" />
    <vehicle id="SN_221" type="typeStraight" route="SN" depart="227" />
    <vehicle id="NE_222" type="typeTurn" route="NE" depart="229" />
    <vehicle id="WE_223" type="typeStraight" route="WE" depart="231" />
    <vehicle id="SW_224" type="typeTurn" route="SW" depart="232" />
    <vehicle id="EW_225" type="typeStraight" route="EW" depart="233" />
    <vehicle id="NS_226" type="typeStraight" route="NS" depart="234" />
    <vehicle id="ES_227" type="typeTurn" route="ES" depart="234" />
    <vehicle id="NS_228" type="typeStraight" route="NS" depart="236" />
    <vehicle id="WN_229" type="typeTurn" route="WN" depart="237" />
    <vehicle id="NS_230" type="typeStraight" route="NS" depart="238" />
    <vehicle id="NE_231" type="typeTurn" route="NE" depart="238" />
    <vehicle id="WE_232" type="typeStraight" route="WE" depart="239" />
    <vehicle id="SN_233" type="typeStraight" route="SN" depart="239" />
    <vehicle id="SW_234" type="typeTurn" route="SW" depart="239" />
    <vehicle id="NE_235" type="typeTurn" route="NE" depart="240" />
    <vehicle id="NE_236" type="typeTurn" route="NE" depart="241" />
    <vehicle id="SW_237" type="typeTurn" route="SW" depart="241" />
    <vehicle id="EW_238" type="typeStraight" route="EW" depart="242" />
    <vehicle id="SN_239" type="typeStraight" route="SN" depart="242" />
    <vehicle id="EW_240" type="typeStraight" route="EW" depart="245" />
    <vehicle id="NS_241" type="typeStraight" route="NS" depart="245" />
    <vehicle id="NS_242" type="typeStraight" route="NS" depart="247" />
    <vehicle id="ES_243" type="typeTurn" route="ES" depart="247" />
    <vehicle id="WE_244" type="typeStraight" route="WE" depart="248" />
    <vehicle id="SW_245" type="typeTurn" route="SW" depart="248" />
    <vehicle id="WE_246" type="typeStraight" route="WE" depart="250" />
    <vehicle id="NE_247" type="typeTurn" route="NE" depart="250" />
    <vehicle id="EW_248" type="typeStraight" route="EW" depart="252" />
    <vehicle id="SN_249" type="typeStraight" route="SN" depart="254" />
    <vehicle id="NS_250" type="typeStraight" route="NS" depart="256" />
    <vehicle id="NE_251" type="typeTurn" route="NE" depart="258" />
    <vehicle id="SW_252" type="typeTurn" route="SW" depart="262" />
    <vehicle id="WN_253" type="typeTurn" route="WN" depart="262" />
    <vehicle id="WE_254" type="typeStraight" route="WE" depart="264" />
    <vehicle id="WE_255" type="typeStraight" route="WE" depart="265" />
    <vehicle id="NS_256" type="typeStraight" route="NS" depart="265" />
    <vehicle id="SW_257" type="typeTurn" route="SW" depart="265" />
    <vehicle id="SN_258" type="typeStraight" route="SN" depart="266" />
    <vehicle id="NE_259" type="typeTurn" route="NE" depart="266" />
    <vehicle id="ES_260" type="typeTurn" route="ES" depart="268" />
    <vehicle id="WE_261" type="typeStraight" route="WE" depart="269" />
    <vehicle id="EW_262" type="typeStraight" route="EW" depart="269" />
    <vehicle id="WE_263" type="typeStraight" route="WE" depart="270" />
    <vehicle id="NS_264" type="typeStraight" route="NS" depart="270" />
    <vehicle id="WN_265" type="typeTurn" route="WN" depart="270" />
    <vehicle id="WE_266" type="typeStraight" route="WE" depart="271" />
    <vehicle id="NE_267" type="typeTurn" route="NE" depart="271" />
    <vehicle id="NE_268" type="typeTurn" route="NE" depart="272" />
    <vehicle id="EW_269" type="typeStraight" route="EW" depart="274" />
    <vehicle id="EW_270" type="typeStraight" route="EW" depart="275" />
    <vehicle id="NS_271" type="typeStraight" route="NS" depart="276" />
    <vehicle id="SW_272" type="typeTurn" route="SW" depart="276" />
    <vehicle id="ES_273" type="typeTurn" route="ES" depart="277" />
    <vehicle id="EW_274" type="typeStraight" route="EW" depart="278" />
    <vehicle id="SW_275" type="typeTurn" route="SW" depart="278" />
    <vehicle id="WE_276" type="typeStraight" route="WE" depart="279" />
    <vehicle id="SW_277" type="typeTurn" route="SW" depart="279" />
    <vehicle id="WE_278" type="typeStraight" route="WE" depart="281" />
    <vehicle id="NE_279" type="typeTurn" route="NE" depart="281" />
    <vehicle id="NS_280" type="typeStraight" route="NS" depart="282" />
    <vehicle id="EW_281" type="typeStraight" route="EW" depart="288" />
    <vehicle id="SW_282" type="typeTurn" route="SW" depart="289" />
    <vehicle id="SN_283" type="typeStraight" route="SN" depart="290" />
    <vehicle id="NS_284" type="typeStraight" route="NS" depart="291" />
    <vehicle id="SW_285" type="typeTurn" route="SW" depart="292" />
    <vehicle id="NS_286" type="typeStraight" route="NS" depart="293" />
    <vehicle id="WN_287" type="typeTurn" route="WN" depart="296" />
    <vehicle id="WE_288" type="typeStraight" route="WE" depart="298" />
    <vehicle id="EW_289" type="typeStraight" route="EW" depart="298" />
    <vehicle id="NE_290" type="typeTurn" route="NE" depart="300" />
    <vehicle id="WE_291" type="typeStraight" route="WE" depart="303" />
    <vehicle id="NS_292" type="typeStraight" route="NS" depart="303" />
    <vehicle id="SN_293" type="typeStraight" route="SN" depart="303" />
    <vehicle id="NE_294" type="typeTurn" route="NE" depart="304" />
    <vehicle id="ES_295" type="typeTurn" route="ES" depart="304" />
    <vehicle id="WE_296" type="typeStraight" route="WE" depart="306" />
    <vehicle id="ES_297" type="typeTurn" route="ES" depart="306" />
    <vehicle id="EW_298" type="typeStraight" route="EW" depart="307" />
    <vehicle id="SN_299" type="typeStraight" route="SN" depart="309" />
    <vehicle id="SW_300" type="typeTurn" route="SW" depart="309" />
    <vehicle id="EW_301" type="typeStraight" route="EW" depart="311" />
    <vehicle id="ES_302" type="typeTurn" route="ES" depart="313" />
    <vehicle id="NE_303" type="typeTurn" route="NE" depart="314" />
    <vehicle id="SN_304" type="typeStraight" route="SN" depart="315" />
    <vehicle id="WE_305" type="typeStraight" route="WE" depart="317" />
    <vehicle id="EW_306" type="typeStraight" route="EW" depart="317" />
    <vehicle id="WN_307" type="typeTurn" route="WN" depart="317" />
    <vehicle id="SN_308" type="typeStraight" route="SN" depart="318" />
    <vehicle id="SN_309" type="typeStraight" route="SN" depart="320" />
    <vehicle id="WE_310" type="typeStraight" route="WE" depart="321" />
    <vehicle id="SW_311" type="typeTurn" route="SW" depart="321" />
    <vehicle id="EW_312" type="typeStraight" route="EW" depart="322" />
    <vehicle id="EW_313" type="typeStraight" route="EW" depart="323" />
    <vehicle id="SN_314" type="typeStraight" route="SN" depart="323" />
    <vehicle id="NE_315" type="typeTurn" route="NE" depart="324" />
    <vehicle id="SN_316" type="typeStraight" route="SN" depart="325" />
    <vehicle id="ES_317" type="typeTurn" route="ES" depart="325" />
    <vehicle id="NS_318" type="typeStraight" route="NS" depart="327" />
    <vehicle id="ES_319" type="typeTurn" route="ES" depart="329" />
    <vehicle id="SW_320" type="typeTurn" route="SW" depart="329" />
    <vehicle id="WE_321" type="typeStraight" route="WE" depart="330" />
    <vehicle id="EW_322" type="typeStraight" route="EW" depart="330" />
    <vehicle id="WE_323" type="typeStraight" route="WE" depart="331" />
    <vehicle id="ES_324" type="typeTurn" route="ES" depart="332" />
    <vehicle id="EW_325" type="typeStraight" route="EW" depart="333" />
    <vehicle id="NS_326" type="typeStraight" route="NS" depart="333" />
    <vehicle id="EW_327" type="typeStraight" route="EW" depart="334" />
    <vehicle id="NS_328" type="typeStraight" route="NS" depart="335" />
    <vehicle id="WN_329" type="typeTurn" route="WN" depart="335" />
    <vehicle id="NS_330" type="typeStraight" route="NS" depart="336" />
    <vehicle id="ES_331" type="typeTurn" route="ES" depart="336" />
    <vehicle id="EW_332" type="typeStraight" route="EW" depart="338" />
    <vehicle id="EW_333" type="typeStraight" route="EW" depart="340" />
    <vehicle id="EW_334" type="typeStraight" route="EW" depart="341" />
    <vehicle id="WN_335" type="typeTurn" route="WN" depart="341" />
    <vehicle id="NE_336" type="typeTurn" route="NE" depart="343" />
    <vehicle id="SN_337" type="typeStraight" route="SN" depart="344" />
    <vehicle id="SN_338" type="typeStraight" route="SN" depart="345" />
    <vehicle id="SW_339" type="typeTurn" route="SW" depart="345" />
    <vehicle id="ES_340" type="typeTurn" route="ES" depart="346" />
    <vehicle id="SW_341" type="typeTurn" route="SW" depart="346" />
    <vehicle id="EW_342" type="typeStraight" route="EW" depart="347" />
    <vehicle id="ES_343" type="typeTurn" route="ES" depart="348" />
    <vehicle id="NS_344" type="typeStraight" route="NS" depart="350" />
    <vehicle id="WN_345" type="typeTurn" route="WN" depart="350" />
    <vehicle id="NS_346" type="typeStraight" route="NS" depart="351" />
    <vehicle id="EW_347" type="typeStraight" route="EW" depart="352" />
    <vehicle id="WE_348" type="typeStraight" route="WE" depart="353" />
    <vehicle id="EW_349" type="typeStraight" route="EW" depart="353" />
    <vehicle id="NE_350" type="typeTurn" route="NE" depart="354" />
    <vehicle id="ES_351" type="typeTurn" route="ES" depart="354" />
    <vehicle id="WE_352" type="typeStraight" route="WE" depart="355" />
    <vehicle id="NE_353" type="typeTurn" route="NE" depart="355" />
    <vehicle id="NS_354" type="typeStraight" route="NS" depart="356" />
    <vehicle id="EW_355" type="typeStraight" route="EW" depart="357" />
    <vehicle id="WN_356" type="typeTurn" route="WN" depart="357" />
    <vehicle id="EW_357" type="typeStraight" route="EW" depart="358" />
    <vehicle id="ES_358" type="typeTurn" route="ES" depart="360" />
    <vehicle id="SN_359" type="typeStraight" route="SN" depart="361" />
    <vehicle id="WE_360" type="typeStraight" route="WE" depart="362" />
    <vehicle id="ES_361" type="typeTurn" route="ES" depart="363" />
    <vehicle id="WE_362" type="typeStraight" route="WE" depart="365" />
    <vehicle id="NE_363" type="typeTurn" route="NE" depart="365" />
    <vehicle id="NE_364" type="typeTurn" route="NE" depart="366" />
    <vehicle id="WE_365" type="typeStraight" route="WE" depart="368" />
    <vehicle id="WE_366" type="typeStraight" route="WE" depart="370" />
    <vehicle id="WN_367" type="typeTurn" route="WN" depart="370" />
    <vehicle id="NE_368" type="typeTurn" route="NE" depart="372" />
    <vehicle id="SN_369" type="typeStraight" route="SN" depart="373" />
    <vehicle id="SW_370" type="typeTurn" route="SW" depart="373" />
    <vehicle id="NE_371" type="typeTurn" route="NE" depart="375" />
    <vehicle id="EW_372" type="typeStraight" route="EW" depart="376" />
    <vehicle id="WN_373" type="typeTurn" route="WN" depart="376" />
    <vehicle id="SN_374" type="typeStraight" route="SN" depart="377" />
    <vehicle id="WE_375" type="typeStraight" route="WE" depart="378" />
    <vehicle id="EW_376" type="typeStraight" route="EW" depart="379" />
    <vehicle id="SN_377" type="typeStraight" route="SN" depart="380" />
    <vehicle id="SW_378" type="typeTurn" route="SW" depart="380" />
    <vehicle id="NE_379" type="typeTurn" route="NE" depart="381" />
    <vehicle id="SW_380" type="typeTurn" route="SW" depart="382" />
    <vehicle id="EW_381" type="typeStraight" route="EW" depart="383" />
    <vehicle id="WN_382" type="typeTurn" route="WN" depart="384" />
    <vehicle id="WN_383" type="typeTurn" route="WN" depart="387" />
    <vehicle id="SN_384" type="typeStraight" route="SN" depart="389" />
    <vehicle id="EW_385" type="typeStraight" route="EW" depart="390" />
    <vehicle id="EW_386" type="typeStraight" route="EW" depart="391" />
    <vehicle id="SN_387" type="typeStraight" route="SN" depart="391" />
    <vehicle id="SW_388" type="typeTurn" route="SW" depart="391" />
    <vehicle id="ES_389" type="typeTurn" route="ES" depart="392" />
    <vehicle id="SN_390" type="typeStraight" route="SN" depart="393" />
    <vehicle id="NS_391" type="typeStraight" route="NS" depart="396" />
    <vehicle id="WN_392" type="typeTurn" route="WN" depart="397" />
    <vehicle id="NE_393" type="typeTurn" route="NE" depart="400" />
    <vehicle id="WN_394" type="typeTurn" route="WN" depart="400" />
    <vehicle id="SN_395" type="typeStraight" route="SN" depart="401" />
    <vehicle id="EW_396" type="typeStraight" route="EW" depart="403" />
    <vehicle id="EW_397" type="typeStraight" route="EW" depart="404" />
    <vehicle id="NS_398" type="typeStraight" route="NS" depart="404" />
    <vehicle id="NS_399" type="typeStraight" route="NS" depart="405" />
    <vehicle id="WE_400" type="typeStraight" route="WE" depart="407" />
    <vehicle id="WN_401" type="typeTurn" route="WN" depart="408" />
    <vehicle id="WE_402" type="typeStraight" route="WE" depart="409" />
    <vehicle id="WN_403" type="typeTurn" route="WN" depart="409" />
    <vehicle id="NE_404" type="typeTurn" route="NE" depart="411" />
    <vehicle id="NS_405" type="typeStraight" route="NS" depart="412" />
    <vehicle id="EW_406" type="typeStraight" route="EW" depart="414" />
    <vehicle id="WE_407" type="typeStraight" route="WE" depart="415" />
    <vehicle id="SW_408" type="typeTurn" route="SW" depart="415" />
    <vehicle id="EW_409" type="typeStraight" route="EW" depart="416" />
    <vehicle id="NS_410" type="typeStraight" route="NS" depart="417" />
    <vehicle id="ES_411" type="typeTurn" route="ES" depart="420" />
    <vehicle id="EW_412" type="typeStraight" route="EW" depart="421" />
    <vehicle id="ES_413" type="typeTurn" route="ES" depart="421" />
    <vehicle id="SN_414" type="typeStraight" route="SN" depart="423" />
    <vehicle id="WE_415" type="typeStraight" route="WE" depart="424" />
    <vehicle id="EW_416" type="typeStraight" route="EW" depart="424" />
    <vehicle id="EW_417" type="typeStraight" route="EW" depart="425" />
    <vehicle id="SW_418" type="typeTurn" route="SW" depart="425" />
    <vehicle id="SN_419" type="typeStraight" route="SN" depart="426" />