<routes>
        <vType id="typeStraight" accel="1" decel="4.5" sigma="0.5" length="5" minGap="2.5" maxSpeed="13.9" guiShape="passenger"/>
        <vType id="typeTurn" accel="1" decel="4.5" sigma="0.5" length="5" minGap="2.5" maxSpeed="13.9" guiShape="passenger"/>

        <route id="WE" edges="1i 2o" />
        <route id="EW" edges="2i 1o " />
        <route id="NS" edges="4i 3o " />
        <route id="SN" edges="3i 4o " />
        <route id="NE" edges="4i 2o" />
        <route id="ES" edges="2i 3o " />
        <route id="SW" edges="3i 1o " />
        <route id="WN" edges="1i 4o " />
    <vehicle id="ES_0" type="typeTurn" route="ES" depart="0" />
    <vehicle id="WE_1" type="typeStraight" route="WE" depart="1" />
    <vehicle id="WN_2" type="typeTurn" route="WN" depart="1" />
    <vehicle id="SW_3" type="typeTurn" route="SW" depart="2" />
    <vehicle id="ES_4" type="typeTurn" route="ES" depart="2" />
    <vehicle id="WE_5" type="typeStraight" route="WE" depart="5" />
    <vehicle id="WN_6" type="typeTurn" route="WN" depart="5" />
    <vehicle id="EW_7" type="typeStraight" route="EW" depart="5" />
    <vehicle id="ES_8" type="typeTurn" route="ES" depart="5" />
    <vehicle id="WE_9" type="typeStraight" route="WE" depart="6" />
    <vehicle id="WN_10" type="typeTurn" route="WN" depart="8" />
    <vehicle id="EW_11" type="typeStraight" route="EW" depart="8" />
    <vehicle id="EW_12" type="typeStraight" route="EW" depart="9" />
    <vehicle id="ES_13" type="typeTurn" route="ES" depart="9" />
    <vehicle id="WN_14" type="typeTurn" route="WN" depart="10" />
    <vehicle id="EW_15" type="typeStraight" route="EW" depart="11" />
    <vehicle id="WE_16" type="typeStraight" route="WE" depart="12" />
    <vehicle id="ES_17" type="typeTurn" route="ES" depart="13" />
    <vehicle id="WE_18" type="typeStraight" route="WE" depart="14" />
    <vehicle id="ES_19" type="typeTurn" route="ES" depart="14" />
    <vehicle id="WE_20" type="typeStraight" route="WE" depart="15" />
    <vehicle id="EW_21" type="typeStraight" route="EW" depart="15" />
    <vehicle id="EW_22" type="typeStraight" route="EW" depart="16" />
    <vehicle id="EW_23" type="typeStraight" route="EW" depart="17" />
    <vehicle id="WE_24" type="typeStraight" route="WE" depart="18" />
    <vehicle id="EW_25" type="typeStraight" route="EW" depart="19" />
    <vehicle id="ES_26" type="typeTurn" route="ES" depart="19" />
    <vehicle id="WN_27" type="typeTurn" route="WN" depart="20" />
    <vehicle id="EW_28" type="typeStraight" route="EW" depart="20" />
    <vehicle id="ES_29" type="typeTurn" route="ES" depart="21" />
    <vehicle id="ES_30" type="typeTurn" route="ES" depart="22" />
    <vehicle id="WE_31" type="typeStraight" route="WE" depart="23" />
    <vehicle id="ES_32" type="typeTurn" route="ES" depart="23" />
    <vehicle id="WN_33" type="typeTurn" route="WN" depart="24" />
    <vehicle id="WN_34" type="typeTurn" route="WN" depart="25" />
    <vehicle id="ES_35" type="typeTurn" route="ES" depart="25" />
    <vehicle id="WE_36" type="typeStraight" route="WE" depart="28" />
    <vehicle id="EW_37" type="typeStraight" route="EW" depart="28" />
    <vehicle id="ES_38" type="typeTurn" route="ES" depart="28" />
    <vehicle id="WN_39" type="typeTurn" route="WN" depart="29" />
    <vehicle id="WE_40" type="typeStraight" route="WE" depart="30" />
    <vehicle id="EW_41" type="typeStraight" route="EW" depart="30" />
    <vehicle id="WE_42" type="typeStraight" route="WE" depart="31" />
    <vehicle id="ES_43" type="typeTurn" route="ES" depart="32" />
    <vehicle id="WN_44" type="typeTurn" route="WN" depart="33" />
    <vehicle id="ES_45" type="typeTurn" route="ES" depart="33" />
    <vehicle id="WE_46" type="typeStraight" route="WE" depart="34" />
    <vehicle id="EW_47" type="typeStraight" route="EW" depart="34" />
    <vehicle id="ES_48" type="typeTurn" route="ES" depart="35" />
    <vehicle id="SN_49" type="typeStraight" route="SN" depart="36" />
    <vehicle id="WN_50" type="typeTurn" route="WN" depart="36" />
    <vehicle id="NE_51" type="typeTurn" route="NE" depart="37" />
    <vehicle id="ES_52" type="typeTurn" route="ES" depart="38" />
    <vehicle id="EW_53" type="typeStraight" route="EW" depart="39" />
    <vehicle id="WE_54" type="typeStraight" route="WE" depart="40" />
    <vehicle id="WN_55" type="typeTurn" route="WN" depart="41" />
    <vehicle id="WN_56" type="typeTurn" route="WN" depart="42" />
    <vehicle id="EW_57" type="typeStraight" route="EW" depart="42" />
    <vehicle id="ES_58" type="typeTurn" route="ES" depart="42" />
    <vehicle id="WN_59" type="typeTurn" route="WN" depart="44" />
    <vehicle id="EW_60" type="typeStraight" route="EW" depart="44" />
    <vehicle id="EW_61" type="typeStraight" route="EW" depart="45" />
    <vehicle id="NS_62" type="typeStraight" route="NS" depart="46" />
    <vehicle id="ES_63" type="typeTurn" route="ES" depart="46" />
    <vehicle id="SN_64" type="typeStraight" route="SN" depart="49" />
    <vehicle id="WN_65" type="typeTurn" route="WN" depart="50" />
    <vehicle id="EW_66" type="typeStraight" route="EW" depart="50" />
    <vehicle id="WN_67" type="typeTurn" route="WN" depart="51" />
    <vehicle id="EW_68" type="typeStraight" route="EW" depart="51" />
    <vehicle id="ES_69" type="typeTurn" route="ES" depart="51" />
    <vehicle id="EW_70" type="typeStraight" route="EW" depart="52" />
    <vehicle id="SW_71" type="typeTurn" route="SW" depart="53" />
    <vehicle id="EW_72" type="typeStraight" route="EW" depart="53" />
    <vehicle id="WE_73" type="typeStraight" route="WE" depart="54" />
    <vehicle id="WN_74" type="typeTurn" route="WN" depart="56" />
    <vehicle id="EW_75" type="typeStraight" route="EW" depart="56" />
    <vehicle id="WE_76" type="typeStraight" route="WE" depart="57" />
    <vehicle id="WN_77" type="typeTurn" route="WN" depart="57" />
    <vehicle id="EW_78" type="typeStraight" route="EW" depart="57" />
    <vehicle id="WN_79" type="typeTurn" route="WN" depart="58" />
    <vehicle id="NE_80" type="typeTurn" route="NE" depart="60" />
    <vehicle id="WN_81" type="typeTurn" route="WN" depart="61" />
    <vehicle id="WN_82" type="typeTurn" route="WN" depart="62" />
    <vehicle id="WE_83" type="typeStraight" route="WE" depart="63" />
    <vehicle id="EW_84" type="typeStraight" route="EW" depart="63" />
    <vehicle id="WE_85" type="typeStraight" route="WE" depart="64" />
    <vehicle id="WN_86" type="typeTurn" route="WN" depart="64" />
    <vehicle id="EW_87" type="typeStraight" route="EW" depart="64" />
    <vehicle id="ES_88" type="typeTurn" route="ES" depart="65" />
    <vehicle id="NS_89" type="typeStraight" route="NS" depart="66" />
    <vehicle id="WN_90" type="typeTurn" route="WN" depart="66" />
    <vehicle id="EW_91" type="typeStraight" route="EW" depart="67" />
    <vehicle id="ES_92" type="typeTurn" route="ES" depart="67" />
    <vehicle id="WN_93" type="typeTurn" route="WN" depart="68" />
    <vehicle id="WE_94" type="typeStraight" route="WE" depart="69" />
    <vehicle id="EW_95" type="typeStraight" route="EW" depart="70" />
    <vehicle id="EW_96" type="typeStraight" route="EW" depart="71" />
    <vehicle id="WE_97" type="typeStraight" route="WE" depart="72" />
    <vehicle id="ES_98" type="typeTurn" route="ES" depart="72" />
    <vehicle id="WN_99" type="typeTurn" route="WN" depart="73" />
    <vehicle id="ES_100" type="typeTurn" route="ES" depart="73" />
    <vehicle id="WN_101" type="typeTurn" route="WN" depart="74" />
    <vehicle id="EW_102" type="typeStraight" route="EW" depart="74" />
    <vehicle id="WE_103" type="typeStraight" route="WE" depart="77" />
    <vehicle id="WN_104" type="typeTurn" route="WN" depart="77" />
    <vehicle id="EW_105" type="typeStraight" route="EW" depart="77" />
    <vehicle id="ES_106" type="typeTurn" route="ES" depart="77" />
    <vehicle id="WE_107" type="typeStraight" route="WE" depart="79" />
    <vehicle id="WN_108" type="typeTurn" route="WN" depart="79" />
    <vehicle id="ES_109" type="typeTurn" route="ES" depart="79" />
    <vehicle id="ES_110" type="typeTurn" route="ES" depart="82" />
    <vehicle id="EW_111" type="typeStraight" route="EW" depart="84" />
    <vehicle id="ES_112" type="typeTurn" route="ES" depart="84" />
    <vehicle id="WE_113" type="typeStraight" route="WE" depart="85" />
    <vehicle id="ES_114" type="typeTurn" route="ES" depart="85" />
    <vehicle id="ES_115" type="typeTurn" route="ES" depart="87" />
    <vehicle id="WE_116" type="typeStraight" route="WE" depart="88" />
    <vehicle id="WN_117" type="typeTurn" route="WN" depart="88" />
    <vehicle id="WE_118" type="typeStraight" route="WE" depart="89" />
    <vehicle id="ES_119" type="typeTurn" route="ES" depart="89" />
    <vehicle id="ES_120" type="typeTurn" route="ES" depart="90" />
    <vehicle id="WN_121" type="typeTurn" route="WN" depart="91" />
    <vehicle id="EW_122" type="typeStraight" route="EW" depart="94" />
    <vehicle id="WE_123" type="typeStraight" route="WE" depart="96" />
    <vehicle id="ES_124" type="typeTurn" route="ES" depart="96" />
    <vehicle id="WN_125" type="typeTurn" route="WN" depart="100" />
    <vehicle id="WE_126" type="typeStraight" route="WE" depart="101" />
    <vehicle id="ES_127" type="typeTurn" route="ES" depart="101" />
    <vehicle id="WN_128" type="typeTurn" route="WN" depart="104" />
    <vehicle id="WE_129" type="typeStraight" route="WE" depart="106" />
    <vehicle id="WE_130" type="typeStraight" route="WE" depart="108" />
    <vehicle id="WE_131" type="typeStraight" route="WE" depart="109" />
    <vehicle id="EW_132" type="typeStraight" route="EW" depart="109" />
    <vehicle id="SN_133" type="typeStraight" route="SN" depart="110" />
    <vehicle id="EW_134" type="typeStraight" route="EW" depart="110" />
    <vehicle id="WE_135" type="typeStraight" route="WE" depart="111" />
    <vehicle id="EW_136" type="typeStraight" route="EW" depart="111" />
    <vehicle id="WN_137" type="typeTurn" route="WN" depart="112" />
    <vehicle id="WE_138" type="typeStraight" route="WE" depart="113" />
    <vehicle id="WE_139" type="typeStraight" route="WE" depart="116" />
    <vehicle id="WN_140" type="typeTurn" route="WN" depart="116" />
    <vehicle id="WE_141" type="typeStraight" route="WE" depart="119" />
    <vehicle id="WE_142" type="typeStraight" route="WE" depart="120" />
    <vehicle id="WN_143" type="typeTurn" route="WN" depart="120" />
    <vehicle id="EW_144" type="typeStraight" route="EW" depart="120" />
    <vehicle id="WE_145" type="typeStraight" route="WE" depart="122" />
    <vehicle id="EW_146" type="typeStraight" route="EW" depart="122" />
    <vehicle id="WN_147" type="typeTurn" route="WN" depart="123" />
    <vehicle id="ES_148" type="typeTurn" route="ES" depart="123" />
    <vehicle id="EW_149" type="typeStraight" route="EW" depart="125" />
    <vehicle id="ES_150" type="typeTurn" route="ES" depart="125" />
    <vehicle id="WN_151" type="typeTurn" route="WN" depart="126" />
    <vehicle id="ES_152" type="typeTurn" route="ES" depart="126" />
    <vehicle id="WE_153" type="typeStraight" route="WE" depart="127" />
    <vehicle id="WN_154" type="typeTurn" route="WN" depart="127" />
    <vehicle id="SN_155" type="typeStraight" route="SN" depart="128" />
    <vehicle id="WE_156" type="typeStraight" route="WE" depart="128" />
    <vehicle id="WN_157" type="typeTurn" route="WN" depart="128" />
    <vehicle id="EW_158" type="typeStraight" route="EW" depart="128" />
    <vehicle id="ES_159" type="typeTurn" route="ES" depart="128" />
    <vehicle id="SN_160" type="typeStraight" route="SN" depart="129" />
    <vehicle id="WE_161" type="typeStraight" route="WE" depart="129" />
    <vehicle id="EW_162" type="typeStraight" route="EW" depart="129" />
    <vehicle id="ES_163" type="typeTurn" route="ES" depart="129" />
    <vehicle id="EW_164" type="typeStraight" route="EW" depart="130" />
    <vehicle id="ES_165" type="typeTurn" route="ES" depart="131" />
    <vehicle id="WN_166" type="typeTurn" route="WN" depart="132" />
    <vehicle id="EW_167" type="typeStraight" route="EW" depart="132" />
    <vehicle id="ES_168" type="typeTurn" route="ES" depart="134" />
    <vehicle id="WN_169" type="typeTurn" route="WN" depart="135" />
    <vehicle id="WN_170" type="typeTurn" route="WN" depart="136" />
    <vehicle id="EW_171" type="typeStraight" route="EW" depart="136" />
    <vehicle id="WN_172" type="typeTurn" route="WN" depart="137" />
    <vehicle id="ES_173" type="typeTurn" route="ES" depart="138" />
    <vehicle id="WN_174" type="typeTurn" route="WN" depart="140" />
    <vehicle id="WN_175" type="typeTurn" route="WN" depart="141" />
    <vehicle id="WN_176" type="typeTurn" route="WN" depart="142" />
    <vehicle id="WE_177" type="typeStraight" route="WE" depart="143" />
    <vehicle id="WN_178" type="typeTurn" route="WN" depart="143" />
    <vehicle id="EW_179" type="typeStraight" route="EW" depart="143" />
    <vehicle id="WN_180" type="typeTurn" route="WN" depart="144" />
    <vehicle id="ES_181" type="typeTurn" route="ES" depart="144" />
    <vehicle id="WN_182" type="typeTurn" route="WN" depart="145" />
    <vehicle id="NS_183" type="typeStraight" route="NS" depart="146" />
    <vehicle id="WE_184" type="typeStraight" route="WE" depart="146" />
    <vehicle id="EW_185" type="typeStraight" route="EW" depart="146" />
    <vehicle id="EW_186" type="typeStraight" route="EW" depart="147" />
    <vehicle id="NE_187" type="typeTurn" route="NE" depart="148" />
    <vehicle id="NE_188" type="typeTurn" route="NE" depart="149" />
    <vehicle id="ES_189" type="typeTurn" route="ES" depart="149" />
    <vehicle id="ES_190" type="typeTurn" route="ES" depart="152" />
    <vehicle id="WE_191" type="typeStraight" route="WE" depart="154" />
    <vehicle id="ES_192" type="typeTurn" route="ES" depart="154" />
    <vehicle id="WE_193" type="typeStraight" route="WE" depart="155" />
    <vehicle id="EW_194" type="typeStraight" route="EW" depart="155" />
    <vehicle id="WE_195" type="typeStraight" route="WE" depart="157" />
    <vehicle id="WN_196" type="typeTurn" route="WN" depart="157" />
    <vehicle id="EW_197" type="typeStraight" route="EW" depart="157" />
    <vehicle id="WE_198" type="typeStraight" route="WE" depart="158" />
    <vehicle id="EW_199" type="typeStraight" route="EW" depart="163" />
    <vehicle id="ES_200" type="typeTurn" route="ES" depart="163" />
    <vehicle id="WE_201" type="typeStraight" route="WE" depart="164" />
    <vehicle id="EW_202" type="typeStraight" route="EW" depart="164" />
    <vehicle id="WN_203" type="typeTurn" route="WN" depart="165" />
    <vehicle id="ES_204" type="typeTurn" route="ES" depart="165" />
    <vehicle id="ES_205" type="typeTurn" route="ES" depart="166" />
    <vehicle id="WN_206" type="typeTurn" route="WN" depart="168" />
    <vehicle id="WE_207" type="typeStraight" route="WE" depart="169" />
    <vehicle id="WN_208" type="typeTurn" route="WN" depart="170" />
    <vehicle id="ES_209" type="typeTurn" route="ES" depart="170" />
    <vehicle id="WN_210" type="typeTurn" route="WN" depart="171" />
    <vehicle id="EW_211" type="typeStraight" route="EW" depart="171" />
    <vehicle id="WE_212" type="typeStraight" route="WE" depart="173" />
    <vehicle id="ES_213" type="typeTurn" route="ES" depart="173" />
    <vehicle id="EW_214" type="typeStraight" route="EW" depart="174" />
    <vehicle id="ES_215" type="typeTurn" route="ES" depart="174" />
    <vehicle id="WN_216" type="typeTurn" route="WN" depart="175" />
    <vehicle id="NS_217" type="typeStraight" route="NS" depart="176" />
    <vehicle id="EW_218" type="typeStraight" route="EW" depart="176" />
    <vehicle id="WE_219" type="typeStraight" route="WE" depart="178" />
    <vehicle id="WN_220" type="typeTurn" route="WN" depart="178" />
    <vehicle id="WN_221" type="typeTurn" route="WN" depart="179" />
    <vehicle id="EW_222" type="typeStraight" route="EW" depart="180" />
    <vehicle id="WE_223" type="typeStraight" route="WE" depart="181" />
    <vehicle id="WN_224" type="typeTurn" route="WN" depart="184" />
    <vehicle id="WN_225" type="typeTurn" route="WN" depart="186" />
    <vehicle id="EW_226" type="typeStraight" route="EW" depart="187" />
    <vehicle id="EW_227" type="typeStraight" route="EW" depart="190" />
    <vehicle id="ES_228" type="typeTurn" route="ES" depart="190" />
    <vehicle id="WN_229" type="typeTurn" route="WN" depart="191" />
    <vehicle id="ES_230" type="typeTurn" route="ES" depart="192" />
    <vehicle id="WE_231" type="typeStraight" route="WE" depart="194" />
    <vehicle id="EW_232" type="typeStraight" route="EW" depart="197" />
    <vehicle id="ES_233" type="typeTurn" route="ES" depart="197" />
    <vehicle id="ES_234" type="typeTurn" route="ES" depart="199" />
    <vehicle id="ES_235" type="typeTurn" route="ES" depart="202" />
    <vehicle id="WE_236" type="typeStraight" route="WE" depart="203" />
    <vehicle id="EW_237" type="typeStraight" route="EW" depart="205" />
    <vehicle id="NE_238" type="typeTurn" route="NE" depart="207" />
    <vehicle id="WN_239" type="typeTurn" route="WN" depart="207" />
    <vehicle id="ES_240" type="typeTurn" route="ES" depart="207" />
    <vehicle id="WN_241" type="typeTurn" route="WN" depart="209" />
    <vehicle id="ES_242" type="typeTurn" route="ES" depart="209" />
    <vehicle id="WN_243" type="typeTurn" route="WN" depart="210" />
    <vehicle id="WE_244" type="typeStraight" route="WE" depart="211" />
    <vehicle id="ES_245" type="typeTurn" route="ES" depart="211" />
    <vehicle id="WN_246" type="typeTurn" route="WN" depart="216" />
    <vehicle id="ES_247" type="typeTurn" route="ES" depart="216" />
    <vehicle id="SN_248" type="typeStraight" route="SN" depart="217" />
    <vehicle id="WE_249" type="typeStraight" route="WE" depart="217" />
    <vehicle id="WE_250" type="typeStraight" route="WE" depart="218" />
    <vehicle id="WN_251" type="typeTurn" route="WN" depart="218" />
    <vehicle id="WE_252" type="typeStraight" route="WE" depart="220" />
    <vehicle id="EW_253" type="typeStraight" route="EW" depart="220" />
    <vehicle id="WN_254" type="typeTurn" route="WN" depart="223" />
    <vehicle id="ES_255" type="typeTurn" route="ES" depart="223" />
    <vehicle id="EW_256" type="typeStraight" route="EW" depart="224" />
    <vehicle id="WN_257" type="typeTurn" route="WN" depart="225" />
    <vehicle id="ES_258" type="typeTurn" route="ES" depart="225" />
    <vehicle id="EW_259" type="typeStraight" route="EW" depart="226" />
    <vehicle id="WE_260" type="typeStraight" route="WE" depart="229" />
    <vehicle id="EW_261" type="typeStraight" route="EW" depart="229" />
    <vehicle id="ES_262" type="typeTurn" route="ES" depart="230" />
    <vehicle id="WE_263" type="typeStraight" route="WE" depart="231" />
    <vehicle id="EW_264" type="typeStraight" route="EW" depart="232" />
    <vehicle id="WE_265" type="typeStraight" route="WE" depart="233" />
    <vehicle id="WN_266" type="typeTurn" route="WN" depart="233" />
    <vehicle id="SN_267" type="typeStraight" route="SN" depart="234" />
    <vehicle id="WN_268" type="typeTurn" route="WN" depart="234" />
    <vehicle id="EW_269" type="typeStraight" route="EW" depart="234" />
    <vehicle id="WN_270" type="typeTurn" route="WN" depart="235" />
    <vehicle id="ES_271" type="typeTurn" route="ES" depart="235" />
    <vehicle id="WE_272" type="typeStraight" route="WE" depart="237" />
    <vehicle id="ES_273" type="typeTurn" route="ES" depart="237" />
    <vehicle id="WE_274" type="typeStraight" route="WE" depart="238" />
    <vehicle id="WE_275" type="typeStraight" route="WE" depart="239" />
    <vehicle id="EW_276" type="typeStraight" route="EW" depart="239" />
    <vehicle id="WE_277" type="typeStraight" route="WE" depart="240" />
    <vehicle id="WE_278" type="typeStraight" route="WE" depart="241" />
    <vehicle id="EW_279" type="typeStraight" route="EW" depart="241" />
    <vehicle id="WE_280" type="typeStraight" route="WE" depart="244" />
    <vehicle id="NE_281" type="typeTurn" route="NE" depart="245" />
    <vehicle id="SN_282" type="typeStraight" route="SN" depart="245" />
    <vehicle id="WN_283" type="typeTurn" route="WN" depart="246" />
    <vehicle id="SN_284" type="typeStraight" route="SN" depart="247" />
    <vehicle id="WE_285" type="typeStraight" route="WE" depart="247" />
    <vehicle id="WN_286" type="typeTurn" route="WN" depart="247" />
    <vehicle id="WE_287" type="typeStraight" route="WE" depart="248" />
    <vehicle id="EW_288" type="typeStraight" route="EW" depart="248" />
    <vehicle id="WE_289" type="typeStraight" route="WE" depart="250" />
    <vehicle id="WN_290" type="typeTurn" route="WN" depart="253" />
    <vehicle id="EW_291" type="typeStraight" route="EW" depart="253" />
    <vehicle id="ES_292" type="typeTurn" route="ES" depart="253" />
    <vehicle id="WN_293" type="typeTurn" route="WN" depart="254" />
    <vehicle id="EW_294" type="typeStraight" route="EW" depart="254" />
    <vehicle id="SN_295" type="typeStraight" route="SN" depart="256" />
    <vehicle id="WN_296" type="typeTurn" route="WN" depart="256" />
    <vehicle id="WE_297" type="typeStraight" route="WE" depart="258" />
    <vehicle id="WE_298" type="typeStraight" route="WE" depart="259" />
    <vehicle id="WN_299" type="typeTurn" route="WN" depart="259" />
    <vehicle id="EW_300" type="typeStraight" route="EW" depart="259" />
    <vehicle id="EW_301" type="typeStraight" route="EW" depart="261" />
    <vehicle id="EW_302" type="typeStraight" route="EW" depart="262" />
    <vehicle id="ES_303" type="typeTurn" route="ES" depart="262" />
    <vehicle id="EW_304" type="typeStraight" route="EW" depart="263" />
    <vehicle id="NS_305" type="typeStraight" route="NS" depart="264" />
    <vehicle id="NS_306" type="typeStraight" route="NS" depart="265" />
    <vehicle id="SN_307" type="typeStraight" route="SN" depart="265" />
    <vehicle id="WE_308" type="typeStraight" route="WE" depart="265" />
    <vehicle id="EW_309" type="typeStraight" route="EW" depart="265" />
    <vehicle id="WE_310" type="typeStraight" route="WE" depart="266" />
    <vehicle id="WN_311" type="typeTurn" route="WN" depart="266" />
    <vehicle id="EW_312" type="typeStraight" route="EW" depart="266" />
    <vehicle id="ES_313" type="typeTurn" route="ES" depart="267" />
    <vehicle id="WN_314" type="typeTurn" route="WN" depart="268" />
    <vehicle id="NE_315" type="typeTurn" route="NE" depart="269" />
    <vehicle id="ES_316" type="typeTurn" route="ES" depart="270" />
    <vehicle id="WE_317" type="typeStraight" route="WE" depart="271" />
    <vehicle id="WE_318" type="typeStraight" route="WE" depart="272" />
    <vehicle id="WN_319" type="typeTurn" route="WN" depart="272" />
    <vehicle id="EW_320" type="typeStraight" route="EW" depart="272" />
    <vehicle id="WE_321" type="typeStraight" route="WE" depart="273" />
    <vehicle id="EW_322" type="typeStraight" route="EW" depart="276" />
    <vehicle id="ES_323" type="typeTurn" route="ES" depart="276" />
    <vehicle id="WE_324" type="typeStraight" route="WE" depart="277" />
    <vehicle id="WN_325" type="typeTurn" route="WN" depart="277" />
    <vehicle id="EW_326" type="typeStraight" route="EW" depart="278" />
    <vehicle id="WE_327" type="typeStraight" route="WE" depart="279" />
    <vehicle id="EW_328" type="typeStraight" route="EW" depart="279" />
    <vehicle id="WN_329" type="typeTurn" route="WN" depart="280" />
    <vehicle id="WE_330" type="typeStraight" route="WE" depart="281" />
    <vehicle id="WN_331" type="typeTurn" route="WN" depart="281" />
    <vehicle id="EW_332" type="typeStraight" route="EW" depart="281" />
    <vehicle id="WN_333" type="typeTurn" route="WN" depart="283" />
    <vehicle id="WE_334" type="typeStraight" route="WE" depart="284" />
    <vehicle id="WE_335" type="typeStraight" route="WE" depart="285" />
    <vehicle id="EW_336" type="typeStraight" route="EW" depart="286" />
    <vehicle id="WN_337" type="typeTurn" route="WN" depart="287" />
    <vehicle id="EW_338" type="typeStraight" route="EW" depart="289" />
    <vehicle id="SN_339" type="typeStraight" route="SN" depart="291" />
    <vehicle id="EW_340" type="typeStraight" route="EW" depart="292" />
    <vehicle id="ES_341" type="typeTurn" route="ES" depart="292" />
    <vehicle id="WE_342" type="typeStraight" route="WE" depart="293" />
    <vehicle id="ES_343" type="typeTurn" route="ES" depart="293" />
    <vehicle id="ES_344" type="typeTurn" route="ES" depart="294" />
    <vehicle id="WN_345" type="typeTurn" route="WN" depart="295" />
    <vehicle id="EW_346" type="typeStraight" route="EW" depart="295" />
    <vehicle id="ES_347" type="typeTurn" route="ES" depart="295" />
    <vehicle id="WE_348" type="typeStraight" route="WE" depart="296" />
    <vehicle id="ES_349" type="typeTurn" route="ES" depart="296" />
    <vehicle id="WN_350" type="typeTurn" route="WN" depart="297" />
    <vehicle id="EW_351" type="typeStraight" route="EW" depart="298" />
    <vehicle id="WE_352" type="typeStraight" route="WE" depart="300" />
    <vehicle id="WN_353" type="typeTurn" route="WN" depart="300" />
    <vehicle id="EW_354" type="typeStraight" route="EW" depart="300" />
    <vehicle id="WE_355" type="typeStraight" route="WE" depart="301" />
    <vehicle id="EW_356" type="typeStraight" route="EW" depart="301" />
    <vehicle id="WN_357" type="typeTurn" route="WN" depart="302" />
    <vehicle id="SN_358" type="typeStraight" route="SN" depart="303" />
    <vehicle id="WE_359" type="typeStraight" route="WE" depart="304" />
    <vehicle id="WN_360" type="typeTurn" route="WN" depart="304" />
    <vehicle id="ES_361" type="typeTurn" route="ES" depart="304" />
    <vehicle id="ES_362" type="typeTurn" route="ES" depart="305" />
    <vehicle id="WN_363" type="typeTurn" route="WN" depart="306" />
    <vehicle id="WE_364" type="typeStraight" route="WE" depart="307" />
    <vehicle id="WE_365" type="typeStraight" route="WE" depart="308" />
    <vehicle id="WE_366" type="typeStraight" route="WE" depart="309" />
    <vehicle id="WN_367" type="typeTurn" route="WN" depart="309" />
    <vehicle id="EW_368" type="typeStraight" route="EW" depart="309" />
    <vehicle id="WE_369" type="typeStraight" route="WE" depart="310" />
    <vehicle id="WN_370" type="typeTurn" route="WN" depart="310" />
    <vehicle id="ES_371" type="typeTurn" route="ES" depart="311" />
    <vehicle id="WN_372" type="typeTurn" route="WN" depart="313" />
    <vehicle id="ES_373" type="typeTurn" route="ES" depart="313" />
    <vehicle id="WE_374" type="typeStraight" route="WE" depart="314" />
    <vehicle id="WN_375" type="typeTurn" route="WN" depart="315" />
    <vehicle id="ES_376" type="typeTurn" route="ES" depart="315" />
    <vehicle id="WE_377" type="typeStraight" route="WE" depart="317" />
    <vehicle id="ES_378" type="typeTurn" route="ES" depart="317" />
    <vehicle id="WN_379" type="typeTurn" route="WN" depart="318" />
    <vehicle id="ES_380" type="typeTurn" route="ES" depart="318" />
    <vehicle id="WE_381" type="typeStraight" route="WE" depart="319" />
    <vehicle id="SW_382" type="typeTurn" route="SW" depart="320" />
    <vehicle id="WN_383" type="typeTurn" route="WN" depart="320" />
    <vehicle id="EW_384" type="typeStraight" route="EW" depart="320" />
    <vehicle id="NS_385" type="typeStraight" route="NS" depart="321" />
    <vehicle id="WN_386" type="typeTurn" route="WN" depart="321" />
    <vehicle id="EW_387" type="typeStraight" route="EW" depart="321" />
    <vehicle id="WE_388" type="typeStraight" route="WE" depart="322" />
    <vehicle id="ES_389" type="typeTurn" route="ES" depart="322" />
    <vehicle id="SW_390" type="typeTurn" route="SW" depart="323" />
    <vehicle id="WE_391" type="typeStraight" route="WE" depart="324" />
    <vehicle id="WN_392" type="typeTurn" route="WN" depart="324" />
    <vehicle id="WE_393" type="typeStraight" route="WE" depart="325" />
    <vehicle id="WN_394" type="typeTurn" route="WN" depart="325" />
    <vehicle id="EW_395" type="typeStraight" route="EW" depart="327" />
    <vehicle id="WN_396" type="typeTurn" route="WN" depart="328" />
    <vehicle id="WN_397" type="typeTurn" route="WN" depart="329" />
    <vehicle id="EW_398" type="typeStraight" route="EW" depart="329" />
    <vehicle id="ES_399" type="typeTurn" route="ES" depart="329" />
    <vehicle id="EW_400" type="typeStraight" route="EW" depart="331" />
    <vehicle id="WN_401" type="typeTurn" route="WN" depart="332" />
    <vehicle id="WE_402" type="typeStraight" route="WE" depart="334" />
    <vehicle id="WE_403" type="typeStraight" route="WE" depart="335" />
    <vehicle id="ES_404" type="typeTurn" route="ES" depart="335" />
    <vehicle id="WN_405" type="typeTurn" route="WN" depart="336" />
    <vehicle id="WE_406" type="typeStraight" route="WE" depart="337" />
    <vehicle id="ES_407" type="typeTurn" route="ES" depart="337" />
    <vehicle id="EW_408" type="typeStraight" route="EW" depart="338" />
    <vehicle id="WN_409" type="typeTurn" route="WN" depart="340" />
    <vehicle id="ES_410" type="typeTurn" route="ES" depart="341" />
    <vehicle id="WE_411" type="typeStraight" route="WE" depart="343" />
    <vehicle id="EW_412" type="typeStraight" route="EW" depart="343" />
    <vehicle id="SW_413" type="typeTurn" route="SW" depart="344" />
    <vehicle id="ES_414" type="typeTurn" route="ES" depart="344" />
    <vehicle id="EW_415" type="typeStraight" route="EW" depart="345" />
    <vehicle id="WN_416" type="typeTurn" route="WN" depart="346" />
    <vehicle id="EW_417" type="typeStraight" route="EW" depart="346" />
    <vehicle id="ES_418" type="typeTurn" route="ES" depart="346" />
    <vehicle id="WN_419" type="typeTurn" route="WN" depart="347" />
    <vehicle id="EW_420" type="typeStraight" route="EW" depart="347" />
    <vehicle id="WE_421" type="typeStraight" route="WE" depart="348" />
    <vehicle id="WN_422" type="typeTurn" route="WN" depart="348" />