<routes>
        <vType id="typeStraight" accel="1" decel="4.5" sigma="0.5" length="5" minGap="2.5" maxSpeed="13.9" guiShape="passenger"/>
        <vType id="typeTurn" accel="1" decel="4.5" sigma="0.5" length="5" minGap="2.5" maxSpeed="13.9" guiShape="passenger"/>

        <route id="WE" edges="1i 2o" />
        <route id="EW" edges="2i 1o " />
        <route id="NS" edges="4i 3o " />
        <route id="SN" edges="3i 4o " />
        <route id="NE" edges="4i 2o" />
        <route id="ES" edges="2i 3o " />
        <route id="SW" edges="3i 1o " />
        <route id="WN" edges="1i 4o " />
    <vehicle id="NE_0" type="typeTurn" route="NE" depart="0" />
    <vehicle id="ES_1" type="typeTurn" route="ES" depart="0" />
    <vehicle id="NE_2" type="typeTurn" route="NE" depart="1" />
    <vehicle id="WE_3" type="typeStraight" route="WE" depart="1" />
    <vehicle id="WN_4" type="typeTurn" route="WN" depart="1" />
    <vehicle id="SW_5" type="typeTurn" route="SW" depart="2" />
    <vehicle id="ES_6" type="typeTurn" route="ES" depart="2" />
    <vehicle id="NE_7" type="typeTurn" route="NE" depart="5" />
    <vehicle id="WE_8" type="typeStraight" route="WE" depart="5" />
    <vehicle id="WN_9" type="typeTurn" route="WN" depart="5" />
    <vehicle id="EW_10" type="typeStraight" route="EW" depart="5" />
    <vehicle id="ES_11" type="typeTurn" route="ES" depart="5" />
    <vehicle id="WE_12" type="typeStraight" route="WE" depart="6" />
    <vehicle id="SW_13" type="typeTurn" route="SW" depart="8" />
    <vehicle id="WN_14" type="typeTurn" route="WN" depart="8" />
    <vehicle id="EW_15" type="typeStraight" route="EW" depart="8" />
    <vehicle id="EW_16" type="typeStraight" route="EW" depart="9" />
    <vehicle id="ES_17" type="typeTurn" route="ES" depart="9" />
    <vehicle id="WN_18" type="typeTurn" route="WN" depart="10" />
    <vehicle id="NE_19" type="typeTurn" route="NE" depart="11" />
    <vehicle id="EW_20" type="typeStraight" route="EW" depart="11" />
    <vehicle id="WE_21" type="typeStraight" route="WE" depart="12" />
    <vehicle id="ES_22" type="typeTurn" route="ES" depart="13" />
    <vehicle id="WE_23" type="typeStraight" route="WE" depart="14" />
    <vehicle id="ES_24" type="typeTurn" route="ES" depart="14" />
    <vehicle id="WE_25" type="typeStraight" route="WE" depart="15" />
    <vehicle id="EW_26" type="typeStraight" route="EW" depart="15" />
    <vehicle id="SW_27" type="typeTurn" route="SW" depart="16" />
    <vehicle id="EW_28" type="typeStraight" route="EW" depart="16" />
    <vehicle id="NS_29" type="typeStraight" route="NS" depart="17" />
    <vehicle id="EW_30" type="typeStraight" route="EW" depart="17" />
    <vehicle id="WE_31" type="typeStraight" route="WE" depart="18" />
    <vehicle id="EW_32" type="typeStraight" route="EW" depart="19" />
    <vehicle id="ES_33" type="typeTurn" route="ES" depart="19" />
    <vehicle id="NS_34" type="typeStraight" route="NS" depart="20" />
    <vehicle id="WN_35" type="typeTurn" route="WN" depart="20" />
    <vehicle id="EW_36" type="typeStraight" route="EW" depart="20" />
    <vehicle id="ES_37" type="typeTurn" route="ES" depart="21" />
    <vehicle id="ES_38" type="typeTurn" route="ES" depart="22" />
    <vehicle id="WE_39" type="typeStraight" route="WE" depart="23" />
    <vehicle id="ES_40" type="typeTurn" route="ES" depart="23" />
    <vehicle id="WN_41" type="typeTurn" route="WN" depart="24" />
    <vehicle id="WN_42" type="typeTurn" route="WN" depart="25" />
    <vehicle id="ES_43" type="typeTurn" route="ES" depart="25" />
    <vehicle id="NS_44" type="typeStraight" route="NS" depart="28" />
    <vehicle id="WE_45" type="typeStraight" route="WE" depart="28" />
    <vehicle id="EW_46" type="typeStraight" route="EW" depart="28" />
    <vehicle id="ES_47" type="typeTurn" route="ES" depart="28" />
    <vehicle id="WN_48" type="typeTurn" route="WN" depart="29" />
    <vehicle id="WE_49" type="typeStraight" route="WE" depart="30" />
    <vehicle id="EW_50" type="typeStraight" route="EW" depart="30" />
    <vehicle id="WE_51" type="typeStraight" route="WE" depart="31" />
    <vehicle id="NS_52" type="typeStraight" route="NS" depart="32" />
    <vehicle id="ES_53" type="typeTurn" route="ES" depart="32" />
    <vehicle id="WN_54" type="typeTurn" route="WN" depart="33" />
    <vehicle id="ES_55" type="typeTurn" route="ES" depart="33" />
    <vehicle id="WE_56" type="typeStraight" route="WE" depart="34" />
    <vehicle id="EW_57" type="typeStraight" route="EW" depart="34" />
    <vehicle id="ES_58" type="typeTurn" route="ES" depart="35" />
    <vehicle id="SN_59" type="typeStraight" route="SN" depart="36" />
    <vehicle id="WN_60" type="typeTurn" route="WN" depart="36" />
    <vehicle id="NE_61" type="typeTurn" route="NE" depart="37" />
    <vehicle id="ES_62" type="typeTurn" route="ES" depart="38" />
    <vehicle id="EW_63" type="typeStraight" route="EW" depart="39" />
    <vehicle id="WE_64" type="typeStraight" route="WE" depart="40" />
    <vehicle id="WN_65" type="typeTurn" route="WN" depart="41" />
    <vehicle id="WN_66" type="typeTurn" route="WN" depart="42" />
    <vehicle id="EW_67" type="typeStraight" route="EW" depart="42" />
    <vehicle id="ES_68" type="typeTurn" route="ES" depart="42" />
    <vehicle id="WN_69" type="typeTurn" route="WN" depart="44" />
    <vehicle id="EW_70" type="typeStraight" route="EW" depart="44" />
    <vehicle id="EW_71" type="typeStraight" route="EW" depart="45" />
    <vehicle id="NS_72" type="typeStraight" route="NS" depart="46" />
    <vehicle id="ES_73" type="typeTurn" route="ES" depart="46" />
    <vehicle id="SN_74" type="typeStraight" route="SN" depart="49" />
    <vehicle id="WN_75" type="typeTurn" route="WN" depart="50" />
    <vehicle id="EW_76" type="typeStraight" route="EW" depart="50" />
    <vehicle id="WN_77" type="typeTurn" route="WN" depart="51" />
    <vehicle id="EW_78" type="typeStraight" route="EW" depart="51" />
    <vehicle id="ES_79" type="typeTurn" route="ES" depart="51" />
    <vehicle id="SW_80" type="typeTurn" route="SW" depart="52" />
    <vehicle id="EW_81" type="typeStraight" route="EW" depart="52" />
    <vehicle id="SW_82" type="typeTurn" route="SW" depart="53" />
    <vehicle id="EW_83" type="typeStraight" route="EW" depart="53" />
    <vehicle id="SW_84" type="typeTurn" route="SW" depart="54" />
    <vehicle id="WE_85" type="typeStraight" route="WE" depart="54" />
    <vehicle id="WN_86" type="typeTurn" route="WN" depart="56" />
    <vehicle id="EW_87" type="typeStraight" route="EW" depart="56" />
    <vehicle id="WE_88" type="typeStraight" route="WE" depart="57" />
    <vehicle id="WN_89" type="typeTurn" route="WN" depart="57" />
    <vehicle id="EW_90" type="typeStraight" route="EW" depart="57" />
    <vehicle id="WN_91" type="typeTurn" route="WN" depart="58" />
    <vehicle id="NE_92" type="typeTurn" route="NE" depart="60" />
    <vehicle id="WN_93" type="typeTurn" route="WN" depart="61" />
    <vehicle id="WN_94" type="typeTurn" route="WN" depart="62" />
    <vehicle id="NS_95" type="typeStraight" route="NS" depart="63" />
    <vehicle id="WE_96" type="typeStraight" route="WE" depart="63" />
    <vehicle id="EW_97" type="typeStraight" route="EW" depart="63" />
    <vehicle id="WE_98" type="typeStraight" route="WE" depart="64" />
    <vehicle id="WN_99" type="typeTurn" route="WN" depart="64" />
    <vehicle id="EW_100" type="typeStraight" route="EW" depart="64" />
    <vehicle id="ES_101" type="typeTurn" route="ES" depart="65" />
    <vehicle id="NS_102" type="typeStraight" route="NS" depart="66" />
    <vehicle id="WN_103" type="typeTurn" route="WN" depart="66" />
    <vehicle id="EW_104" type="typeStraight" route="EW" depart="67" />
    <vehicle id="ES_105" type="typeTurn" route="ES" depart="67" />
    <vehicle id="WN_106" type="typeTurn" route="WN" depart="68" />
    <vehicle id="WE_107" type="typeStraight" route="WE" depart="69" />
    <vehicle id="EW_108" type="typeStraight" route="EW" depart="70" />
    <vehicle id="EW_109" type="typeStraight" route="EW" depart="71" />
    <vehicle id="WE_110" type="typeStraight" route="WE" depart="72" />
    <vehicle id="ES_111" type="typeTurn" route="ES" depart="72" />
    <vehicle id="WN_112" type="typeTurn" route="WN" depart="73" />
    <vehicle id="ES_113" type="typeTurn" route="ES" depart="73" />
    <vehicle id="WN_114" type="typeTurn" route="WN" depart="74" />
    <vehicle id="EW_115" type="typeStraight" route="EW" depart="74" />
    <vehicle id="WE_116" type="typeStraight" route="WE" depart="77" />
    <vehicle id="WN_117" type="typeTurn" route="WN" depart="77" />
    <vehicle id="EW_118" type="typeStraight" route="EW" depart="77" />
    <vehicle id="ES_119" type="typeTurn" route="ES" depart="77" />
    <vehicle id="WE_120" type="typeStraight" route="WE" depart="79" />
    <vehicle id="WN_121" type="typeTurn" route="WN" depart="79" />
    <vehicle id="ES_122" type="typeTurn" route="ES" depart="79" />
    <vehicle id="SW_123" type="typeTurn" route="SW" depart="81" />
    <vehicle id="NS_124" type="typeStraight" route="NS" depart="82" />
    <vehicle id="SN_125" type="typeStraight" route="SN" depart="82" />
    <vehicle id="ES_126" type="typeTurn" route="ES" depart="82" />
    <vehicle id="EW_127" type="typeStraight" route="EW" depart="84" />
    <vehicle id="ES_128" type="typeTurn" route="ES" depart="84" />
    <vehicle id="WE_129" type="typeStraight" route="WE" depart="85" />
    <vehicle id="ES_130" type="typeTurn" route="ES" depart="85" />
    <vehicle id="ES_131" type="typeTurn" route="ES" depart="87" />
    <vehicle id="WE_132" type="typeStraight" route="WE" depart="88" />
    <vehicle id="WN_133" type="typeTurn" route="WN" depart="88" />
    <vehicle id="WE_134" type="typeStraight" route="WE" depart="89" />
    <vehicle id="ES_135" type="typeTurn" route="ES" depart="89" />
    <vehicle id="ES_136" type="typeTurn" route="ES" depart="90" />
    <vehicle id="NS_137" type="typeStraight" route="NS" depart="91" />
    <vehicle id="WN_138" type="typeTurn" route="WN" depart="91" />
    <vehicle id="EW_139" type="typeStraight" route="EW" depart="94" />
    <vehicle id="WE_140" type="typeStraight" route="WE" depart="96" />
    <vehicle id="ES_141" type="typeTurn" route="ES" depart="96" />
    <vehicle id="WN_142" type="typeTurn" route="WN" depart="100" />
    <vehicle id="WE_143" type="typeStraight" route="WE" depart="101" />
    <vehicle id="ES_144" type="typeTurn" route="ES" depart="101" />
    <vehicle id="NE_145" type="typeTurn" route="NE" depart="102" />
    <vehicle id="SN_146" type="typeStraight" route="SN" depart="103" />
    <vehicle id="WN_147" type="typeTurn" route="WN" depart="104" />
    <vehicle id="SW_148" type="typeTurn" route="SW" depart="106" />
    <vehicle id="WE_149" type="typeStraight" route="WE" depart="106" />
    <vehicle id="NS_150" type="typeStraight" route="NS" depart="108" />
    <vehicle id="WE_151" type="typeStraight" route="WE" depart="108" />
    <vehicle id="WE_152" type="typeStraight" route="WE" depart="109" />
    <vehicle id="EW_153" type="typeStraight" route="EW" depart="109" />
    <vehicle id="SN_154" type="typeStraight" route="SN" depart="110" />
    <vehicle id="EW_155" type="typeStraight" route="EW" depart="110" />
    <vehicle id="WE_156" type="typeStraight" route="WE" depart="111" />
    <vehicle id="EW_157" type="typeStraight" route="EW" depart="111" />
    <vehicle id="WN_158" type="typeTurn" route="WN" depart="112" />
    <vehicle id="WE_159" type="typeStraight" route="WE" depart="113" />
    <vehicle id="WE_160" type="typeStraight" route="WE" depart="116" />
    <vehicle id="WN_161" type="typeTurn" route="WN" depart="116" />
    <vehicle id="WE_162" type="typeStraight" route="WE" depart="119" />
    <vehicle id="WE_163" type="typeStraight" route="WE" depart="120" />
    <vehicle id="WN_164" type="typeTurn" route="WN" depart="120" />
    <vehicle id="EW_165" type="typeStraight" route="EW" depart="120" />
    <vehicle id="SW_166" type="typeTurn" route="SW" depart="121" />
    <vehicle id="WE_167" type="typeStraight" route="WE" depart="122" />
    <vehicle id="EW_168" type="typeStraight" route="EW" depart="122" />
    <vehicle id="WN_169" type="typeTurn" route="WN" depart="123" />
    <vehicle id="ES_170" type="typeTurn" route="ES" depart="123" />
    <vehicle id="SW_171" type="typeTurn" route="SW" depart="124" />
    <vehicle id="EW_172" type="typeStraight" route="EW" depart="125" />
    <vehicle id="ES_173" type="typeTurn" route="ES" depart="125" />
    <vehicle id="WN_174" type="typeTurn" route="WN" depart="126" />
    <vehicle id="ES_175" type="typeTurn" route="ES" depart="126" />
    <vehicle id="SN_176" type="typeStraight" route="SN" depart="127" />
    <vehicle id="WE_177" type="typeStraight" route="WE" depart="127" />
    <vehicle id="WN_178" type="typeTurn" route="WN" depart="127" />
    <vehicle id="SN_179" type="typeStraight" route="SN" depart="128" />
    <vehicle id="WE_180" type="typeStraight" route="WE" depart="128" />
    <vehicle id="WN_181" type="typeTurn" route="WN" depart="128" />
    <vehicle id="EW_182" type="typeStraight" route="EW" depart="128" />
    <vehicle id="ES_183" type="typeTurn" route="ES" depart="128" />
    <vehicle id="NE_184" type="typeTurn" route="NE" depart="129" />
    <vehicle id="SN_185" type="typeStraight" route="SN" depart="129" />
    <vehicle id="WE_186" type="typeStraight" route="WE" depart="129" />
    <vehicle id="EW_187" type="typeStraight" route="EW" depart="129" />
    <vehicle id="ES_188" type="typeTurn" route="ES" depart="129" />
    <vehicle id="EW_189" type="typeStraight" route="EW" depart="130" />
    <vehicle id="NE_190" type="typeTurn" route="NE" depart="131" />
    <vehicle id="ES_191" type="typeTurn" route="ES" depart="131" />
    <vehicle id="WN_192" type="typeTurn" route="WN" depart="132" />
    <vehicle id="EW_193" type="typeStraight" route="EW" depart="132" />
    <vehicle id="NS_194" type="typeStraight" route="NS" depart="133" />
    <vehicle id="ES_195" type="typeTurn" route="ES" depart="134" />
    <vehicle id="WN_196" type="typeTurn" route="WN" depart="135" />
    <vehicle id="SW_197" type="typeTurn" route="SW" depart="136" />
    <vehicle id="WN_198" type="typeTurn" route="WN" depart="136" />
    <vehicle id="EW_199" type="typeStraight" route="EW" depart="136" />
    <vehicle id="WN_200" type="typeTurn" route="WN" depart="137" />
    <vehicle id="ES_201" type="typeTurn" route="ES" depart="138" />
    <vehicle id="WN_202" type="typeTurn" route="WN" depart="140" />
    <vehicle id="WN_203" type="typeTurn" route="WN" depart="141" />
    <vehicle id="SW_204" type="typeTurn" route="SW" depart="142" />
    <vehicle id="WN_205" type="typeTurn" route="WN" depart="142" />
    <vehicle id="WE_206" type="typeStraight" route="WE" depart="143" />
    <vehicle id="WN_207" type="typeTurn" route="WN" depart="143" />
    <vehicle id="EW_208" type="typeStraight" route="EW" depart="143" />
    <vehicle id="WN_209" type="typeTurn" route="WN" depart="144" />
    <vehicle id="ES_210" type="typeTurn" route="ES" depart="144" />
    <vehicle id="WN_211" type="typeTurn" route="WN" depart="145" />
    <vehicle id="NS_212" type="typeStraight" route="NS" depart="146" />
    <vehicle id="WE_213" type="typeStraight" route="WE" depart="146" />
    <vehicle id="EW_214" type="typeStraight" route="EW" depart="146" />
    <vehicle id="EW_215" type="typeStraight" route="EW" depart="147" />
    <vehicle id="NS_216" type="typeStraight" route="NS" depart="148" />
    <vehicle id="NE_217" type="typeTurn" route="NE" depart="148" />
    <vehicle id="NE_218" type="typeTurn" route="NE" depart="149" />
    <vehicle id="ES_219" type="typeTurn" route="ES" depart="149" />
    <vehicle id="ES_220" type="typeTurn" route="ES" depart="152" />
    <vehicle id="WE_221" type="typeStraight" route="WE" depart="154" />
    <vehicle id="ES_222" type="typeTurn" route="ES" depart="154" />
    <vehicle id="NS_223" type="typeStraight" route="NS" depart="155" />
    <vehicle id="WE_224" type="typeStraight" route="WE" depart="155" />
    <vehicle id="EW_225" type="typeStraight" route="EW" depart="155" />
    <vehicle id="WE_226" type="typeStraight" route="WE" depart="157" />
    <vehicle id="WN_227" type="typeTurn" route="WN" depart="157" />
    <vehicle id="EW_228" type="typeStraight" route="EW" depart="157" />
    <vehicle id="WE_229" type="typeStraight" route="WE" depart="158" />
    <vehicle id="NS_230" type="typeStraight" route="NS" depart="160" />
    <vehicle id="EW_231" type="typeStraight" route="EW" depart="163" />
    <vehicle id="ES_232" type="typeTurn" route="ES" depart="163" />
    <vehicle id="WE_233" type="typeStraight" route="WE" depart="164" />
    <vehicle id="EW_234" type="typeStraight" route="EW" depart="164" />
    <vehicle id="SN_235" type="typeStraight" route="SN" depart="165" />
    <vehicle id="WN_236" type="typeTurn" route="WN" depart="165" />
    <vehicle id="ES_237" type="typeTurn" route="ES" depart="165" />
    <vehicle id="ES_238" type="typeTurn" route="ES" depart="166" />
    <vehicle id="WN_239" type="typeTurn" route="WN" depart="168" />
    <vehicle id="WE_240" type="typeStraight" route="WE" depart="169" />
    <vehicle id="WN_241" type="typeTurn" route="WN" depart="170" />
    <vehicle id="ES_242" type="typeTurn" route="ES" depart="170" />
    <vehicle id="WN_243" type="typeTurn" route="WN" depart="171" />
    <vehicle id="EW_244" type="typeStraight" route="EW" depart="171" />
    <vehicle id="SW_245" type="typeTurn" route="SW" depart="172" />
    <vehicle id="WE_246" type="typeStraight" route="WE" depart="173" />
    <vehicle id="ES_247" type="typeTurn" route="ES" depart="173" />
    <vehicle id="EW_248" type="typeStraight" route="EW" depart="174" />
    <vehicle id="ES_249" type="typeTurn" route="ES" depart="174" />
    <vehicle id="NE_250" type="typeTurn" route="NE" depart="175" />
    <vehicle id="WN_251" type="typeTurn" route="WN" depart="175" />
    <vehicle id="NS_252" type="typeStraight" route="NS" depart="176" />
    <vehicle id="EW_253" type="typeStraight" route="EW" depart="176" />
    <vehicle id="SW_254" type="typeTurn" route="SW" depart="177" />
    <vehicle id="WE_255" type="typeStraight" route="WE" depart="178" />
    <vehicle id="WN_256" type="typeTurn" route="WN" depart="178" />
    <vehicle id="WN_257" type="typeTurn" route="WN" depart="179" />
    <vehicle id="EW_258" type="typeStraight" route="EW" depart="180" />
    <vehicle id="SN_259" type="typeStraight" route="SN" depart="181" />
    <vehicle id="WE_260" type="typeStraight" route="WE" depart="181" />
    <vehicle id="WN_261" type="typeTurn" route="WN" depart="184" />
    <vehicle id="NE_262" type="typeTurn" route="NE" depart="186" />
    <vehicle id="WN_263" type="typeTurn" route="WN" depart="186" />
    <vehicle id="EW_264" type="typeStraight" route="EW" depart="187" />
    <vehicle id="NE_265" type="typeTurn" route="NE" depart="188" />
    <vehicle id="SN_266" type="typeStraight" route="SN" depart="188" />
    <vehicle id="EW_267" type="typeStraight" route="EW" depart="190" />
    <vehicle id="ES_268" type="typeTurn" route="ES" depart="190" />
    <vehicle id="WN_269" type="typeTurn" route="WN" depart="191" />
    <vehicle id="ES_270" type="typeTurn" route="ES" depart="192" />
    <vehicle id="WE_271" type="typeStraight" route="WE" depart="194" />
    <vehicle id="NE_272" type="typeTurn" route="NE" depart="196" />
    <vehicle id="EW_273" type="typeStraight" route="EW" depart="197" />
    <vehicle id="ES_274" type="typeTurn" route="ES" depart="197" />
    <vehicle id="ES_275" type="typeTurn" route="ES" depart="199" />
    <vehicle id="NS_276" type="typeStraight" route="NS" depart="201" />
    <vehicle id="NE_277" type="typeTurn" route="NE" depart="201" />
    <vehicle id="ES_278" type="typeTurn" route="ES" depart="202" />
    <vehicle id="NS_279" type="typeStraight" route="NS" depart="203" />
    <vehicle id="NE_280" type="typeTurn" route="NE" depart="203" />
    <vehicle id="WE_281" type="typeStraight" route="WE" depart="203" />
    <vehicle id="EW_282" type="typeStraight" route="EW" depart="205" />
    <vehicle id="NE_283" type="typeTurn" route="NE" depart="207" />
    <vehicle id="WN_284" type="typeTurn" route="WN" depart="207" />
    <vehicle id="ES_285" type="typeTurn" route="ES" depart="207" />
    <vehicle id="WN_286" type="typeTurn" route="WN" depart="209" />
    <vehicle id="ES_287" type="typeTurn" route="ES" depart="209" />
    <vehicle id="WN_288" type="typeTurn" route="WN" depart="210" />
    <vehicle id="WE_289" type="typeStraight" route="WE" depart="211" />
    <vehicle id="ES_290" type="typeTurn" route="ES" depart="211" />
    <vehicle id="NE_291" type="typeTurn" route="NE" depart="215" />
    <vehicle id="WN_292" type="typeTurn" route="WN" depart="216" />
    <vehicle id="ES_293" type="typeTurn" route="ES" depart="216" />
    <vehicle id="SN_294" type="typeStraight" route="SN" depart="217" />
    <vehicle id="WE_295" type="typeStraight" route="WE" depart="217" />
    <vehicle id="SW_296" type="typeTurn" route="SW" depart="218" />
    <vehicle id="WE_297" type="typeStraight" route="WE" depart="218" />
    <vehicle id="WN_298" type="typeTurn" route="WN" depart="218" />
    <vehicle id="WE_299" type="typeStraight" route="WE" depart="220" />
    <vehicle id="EW_300" type="typeStraight" route="EW" depart="220" />
    <vehicle id="WN_301" type="typeTurn" route="WN" depart="223" />
    <vehicle id="ES_302" type="typeTurn" route="ES" depart="223" />
    <vehicle id="EW_303" type="typeStraight" route="EW" depart="224" />
    <vehicle id="SN_304" type="typeStraight" route="SN" depart="225" />
    <vehicle id="WN_305" type="typeTurn" route="WN" depart="225" />
    <vehicle id="ES_306" type="typeTurn" route="ES" depart="225" />
    <vehicle id="EW_307" type="typeStraight" route="EW" depart="226" />
    <vehicle id="WE_308" type="typeStraight" route="WE" depart="229" />
    <vehicle id="EW_309" type="typeStraight" route="EW" depart="229" />
    <vehicle id="ES_310" type="typeTurn" route="ES" depart="230" />
    <vehicle id="WE_311" type="typeStraight" route="WE" depart="231" />
    <vehicle id="EW_312" type="typeStraight" route="EW" depart="232" />
    <vehicle id="WE_313" type="typeStraight" route="WE" depart="233" />
    <vehicle id="WN_314" type="typeTurn" route="WN" depart="233" />
    <vehicle id="SN_315" type="typeStraight" route="SN" depart="234" />
    <vehicle id="WN_316" type="typeTurn" route="WN" depart="234" />
    <vehicle id="EW_317" type="typeStraight" route="EW" depart="234" />
    <vehicle id="WN_318" type="typeTurn" route="WN" depart="235" />
    <vehicle id="ES_319" type="typeTurn" route="ES" depart="235" />
    <vehicle id="WE_320" type="typeStraight" route="WE" depart="237" />
    <vehicle id="ES_321" type="typeTurn" route="ES" depart="237" />
    <vehicle id="WE_322" type="typeStraight" route="WE" depart="238" />
    <vehicle id="WE_323" type="typeStraight" route="WE" depart="239" />
    <vehicle id="EW_324" type="typeStraight" route="EW" depart="239" />
    <vehicle id="WE_325" type="typeStraight" route="WE" depart="240" />
    <vehicle id="WE_326" type="typeStraight" route="WE" depart="241" />
    <vehicle id="EW_327" type="typeStraight" route="EW" depart="241" />
    <vehicle id="NE_328" type="typeTurn" route="NE" depart="242" />
    <vehicle id="SW_329" type="typeTurn" route="SW" depart="242" />
    <vehicle id="WE_330" type="typeStraight" route="WE" depart="244" />
    <vehicle id="NE_331" type="typeTurn" route="NE" depart="245" />
    <vehicle id="SN_332" type="typeStraight" route="SN" depart="245" />
    <vehicle id="WN_333" type="typeTurn" route="WN" depart="246" />
    <vehicle id="SN_334" type="typeStraight" route="SN" depart="247" />
    <vehicle id="WE_335" type="typeStraight" route="WE" depart="247" />
    <vehicle id="WN_336" type="typeTurn" route="WN" depart="247" />
    <vehicle id="NS_337" type="typeStraight" route="NS" depart="248" />
    <vehicle id="WE_338" type="typeStraight" route="WE" depart="248" />
    <vehicle id="EW_339" type="typeStraight" route="EW" depart="248" />
    <vehicle id="WE_340" type="typeStraight" route="WE" depart="250" />
    <vehicle id="WN_341" type="typeTurn" route="WN" depart="253" />
    <vehicle id="EW_342" type="typeStraight" route="EW" depart="253" />
    <vehicle id="ES_343" type="typeTurn" route="ES" depart="253" />
    <vehicle id="WN_344" type="typeTurn" route="WN" depart="254" />
    <vehicle id="EW_345" type="typeStraight" route="EW" depart="254" />
    <vehicle id="SN_346" type="typeStraight" route="SN" depart="256" />
    <vehicle id="WN_347" type="typeTurn" route="WN" depart="256" />
    <vehicle id="WE_348" type="typeStraight" route="WE" depart="258" />
    <vehicle id="WE_349" type="typeStraight" route="WE" depart="259" />
    <vehicle id="WN_350" type="typeTurn" route="WN" depart="259" />
    <vehicle id="EW_351" type="typeStraight" route="EW" depart="259" />
    <vehicle id="EW_352" type="typeStraight" route="EW" depart="261" />
    <vehicle id="EW_353" type="typeStraight" route="EW" depart="262" />
    <vehicle id="ES_354" type="typeTurn" route="ES" depart="262" />
    <vehicle id="EW_355" type="typeStraight" route="EW" depart="263" />
    <vehicle id="NS_356" type="typeStraight" route="NS" depart="264" />
    <vehicle id="NS_357" type="typeStraight" route="NS" depart="265" />
    <vehicle id="SN_358" type="typeStraight" route="SN" depart="265" />
    <vehicle id="WE_359" type="typeStraight" route="WE" depart="265" />
    <vehicle id="EW_360" type="typeStraight" route="EW" depart="265" />
    <vehicle id="WE_361" type="typeStraight" route="WE" depart="266" />
    <vehicle id="WN_362" type="typeTurn" route="WN" depart="266" />
    <vehicle id="EW_363" type="typeStraight" route="EW" depart="266" />
    <vehicle id="ES_364" type="typeTurn" route="ES" depart="267" />
    <vehicle id="WN_365" type="typeTurn" route="WN" depart="268" />
    <vehicle id="NS_366" type="typeStraight" route="NS" depart="269" />
    <vehicle id="NE_367" type="typeTurn" route="NE" depart="269" />
    <vehicle id="SN_368" type="typeStraight" route="SN" depart="270" />
    <vehicle id="ES_369" type="typeTurn" route="ES" depart="270" />
    <vehicle id="NS_370" type="typeStraight" route="NS" depart="271" />
    <vehicle id="WE_371" type="typeStraight" route="WE" depart="271" />
    <vehicle id="WE_372" type="typeStraight" route="WE" depart="272" />
    <vehicle id="WN_373" type="typeTurn" route="WN" depart="272" />
    <vehicle id="EW_374" type="typeStraight" route="EW" depart="272" />
    <vehicle id="WE_375" type="typeStraight" route="WE" depart="273" />
    <vehicle id="NE_376" type="typeTurn" route="NE" depart="274" />
    <vehicle id="NE_377" type="typeTurn" route="NE" depart="275" />
    <vehicle id="EW_378" type="typeStraight" route="EW" depart="276" />
    <vehicle id="ES_379" type="typeTurn" route="ES" depart="276" />
    <vehicle id="WE_380" type="typeStraight" route="WE" depart="277" />
    <vehicle id="WN_381" type="typeTurn" route="WN" depart="277" />
    <vehicle id="EW_382" type="typeStraight" route="EW" depart="278" />
    <vehicle id="WE_383" type="typeStraight" route="WE" depart="279" />
    <vehicle id="EW_384" type="typeStraight" route="EW" depart="279" />
    <vehicle id="WN_385" type="typeTurn" route="WN" depart="280" />
    <vehicle id="NS_386" type="typeStraight" route="NS" depart="281" />
    <vehicle id="WE_387" type="typeStraight" route="WE" depart="281" />
    <vehicle id="WN_388" type="typeTurn" route="WN" depart="281" />
    <vehicle id="EW_389" type="typeStraight" route="EW" depart="281" />
    <vehicle id="WN_390" type="typeTurn" route="WN" depart="283" />
    <vehicle id="WE_391" type="typeStraight" route="WE" depart="284" />
    <vehicle id="WE_392" type="typeStraight" route="WE" depart="285" />
    <vehicle id="EW_393" type="typeStraight" route="EW" depart="286" />
    <vehicle id="WN_394" type="typeTurn" route="WN" depart="287" />
    <vehicle id="NE_395" type="typeTurn" route="NE" depart="288" />
    <vehicle id="EW_396" type="typeStraight" route="EW" depart="289" />
    <vehicle id="SW_397" type="typeTurn" route="SW" depart="290" />
    <vehicle id="SN_398" type="typeStraight" route="SN" depart="291" />
    <vehicle id="EW_399" type="typeStraight" route="EW" depart="292" />
    <vehicle id="ES_400" type="typeTurn" route="ES" depart="292" />
    <vehicle id="WE_401" type="typeStraight" route="WE" depart="293" />
    <vehicle id="ES_402" type="typeTurn" route="ES" depart="293" />
    <vehicle id="ES_403" type="typeTurn" route="ES" depart="294" />
    <vehicle id="WN_404" type="typeTurn" route="WN" depart="295" />
    <vehicle id="EW_405" type="typeStraight" route="EW" depart="295" />
    <vehicle id="ES_406" type="typeTurn" route="ES" depart="295" />
    <vehicle id="WE_407" type="typeStraight" route="WE" depart="296" />
    <vehicle id="ES_408" type="typeTurn" route="ES" depart="296" />
    <vehicle id="WN_409" type="typeTurn" route="WN" depart="297" />
    <vehicle id="NS_410" type="typeStraight" route="NS" depart="298" />
    <vehicle id="EW_411" type="typeStraight" route="EW" depart="298" />
    <vehicle id="WE_412" type="typeStraight" route="WE" depart="300" />
    <vehicle id="WN_413" type="typeTurn" route="WN" depart="300" />
    <vehicle id="EW_414" type="typeStraight" route="EW" depart="300" />
    <vehicle id="WE_415" type="typeStraight" route="WE" depart="301" />
    <vehicle id="EW_416" type="typeStraight" route="EW" depart="301" />
    <vehicle id="WN_417" type="typeTurn" route="WN" depart="302" />
    <vehicle id="NS_418" type="typeStraight" route="NS" depart="303" />
    <vehicle id="SN_419" type="typeStraight" route="SN" depart="303" />
    <vehicle id="WE_420" type="typeStraight" route="WE" depart="304" />
    <vehicle id="WN_421" type="typeTurn" route="WN" depart="304" />
    <vehicle id="ES_422" type="typeTurn" route="ES" depart="304" />