<routes>
        <vType id="typeStraight" accel="1" decel="4.5" sigma="0.5" length="5" minGap="2.5" maxSpeed="13.9" guiShape="passenger"/>
        <vType id="typeTurn" accel="1" decel="4.5" sigma="0.5" length="5" minGap="2.5" maxSpeed="13.9" guiShape="passenger"/>

        <route id="WE" edges="1i 2o" />
        <route id="EW" edges="2i 1o " />
        <route id="NS" edges="4i 3o " />
        <route id="SN" edges="3i 4o " />
        <route id="NE" edges="4i 2o" />
        <route id="ES" edges="2i 3o " />
        <route id="SW" edges="3i 1o " />
        <route id="WN" edges="1i 4o " />
    <vehicle id="NE_0" type="typeTurn" route="NE" depart="0" />
    <vehicle id="ES_1" type="typeTurn" route="ES" depart="0" />
    <vehicle id="NE_2" type="typeTurn" route="NE" depart="1" />
    <vehicle id="WE_3" type="typeStraight" route="WE" depart="1" />
    <vehicle id="WN_4" type="typeTurn" route="WN" depart="1" />
    <vehicle id="SW_5" type="typeTurn" route="SW" depart="2" />
    <vehicle id="ES_6" type="typeTurn" route="ES" depart="2" />
    <vehicle id="SN_7" type="typeStraight" route="SN" depart="3" />
    <vehicle id="SW_8" type="typeTurn" route="SW" depart="3" />
    <vehicle id="NE_9" type="typeTurn" route="NE" depart="5" />
    <vehicle id="WE_10" type="typeStraight" route="WE" depart="5" />
    <vehicle id="WN_11" type="typeTurn" route="WN" depart="5" />
    <vehicle id="EW_12" type="typeStraight" route="EW" depart="5" />
    <vehicle id="ES_13" type="typeTurn" route="ES" depart="5" />
    <vehicle id="WE_14" type="typeStraight" route="WE" depart="6" />
    <vehicle id="SW_15" type="typeTurn" route="SW" depart="8" />
    <vehicle id="WN_16" type="typeTurn" route="WN" depart="8" />
    <vehicle id="EW_17" type="typeStraight" route="EW" depart="8" />
    <vehicle id="EW_18" type="typeStraight" route="EW" depart="9" />
    <vehicle id="ES_19" type="typeTurn" route="ES" depart="9" />
    <vehicle id="WN_20" type="typeTurn" route="WN" depart="10" />
    <vehicle id="NS_21" type="typeStraight" route="NS" depart="11" />
    <vehicle id="NE_22" type="typeTurn" route="NE" depart="11" />
    <vehicle id="SN_23" type="typeStraight" route="SN" depart="11" />
    <vehicle id="EW_24" type="typeStraight" route="EW" depart="11" />
    <vehicle id="WE_25" type="typeStraight" route="WE" depart="12" />
    <vehicle id="SN_26" type="typeStraight" route="SN" depart="13" />
    <vehicle id="ES_27" type="typeTurn" route="ES" depart="13" />
    <vehicle id="WE_28" type="typeStraight" route="WE" depart="14" />
    <vehicle id="ES_29" type="typeTurn" route="ES" depart="14" />
    <vehicle id="WE_30" type="typeStraight" route="WE" depart="15" />
    <vehicle id="EW_31" type="typeStraight" route="EW" depart="15" />
    <vehicle id="SW_32" type="typeTurn" route="SW" depart="16" />
    <vehicle id="EW_33" type="typeStraight" route="EW" depart="16" />
    <vehicle id="NS_34" type="typeStraight" route="NS" depart="17" />
    <vehicle id="EW_35" type="typeStraight" route="EW" depart="17" />
    <vehicle id="WE_36" type="typeStraight" route="WE" depart="18" />
    <vehicle id="SN_37" type="typeStraight" route="SN" depart="19" />
    <vehicle id="EW_38" type="typeStraight" route="EW" depart="19" />
    <vehicle id="ES_39" type="typeTurn" route="ES" depart="19" />
    <vehicle id="NS_40" type="typeStraight" route="NS" depart="20" />
    <vehicle id="WN_41" type="typeTurn" route="WN" depart="20" />
    <vehicle id="EW_42" type="typeStraight" route="EW" depart="20" />
    <vehicle id="ES_43" type="typeTurn" route="ES" depart="21" />
    <vehicle id="NS_44" type="typeStraight" route="NS" depart="22" />
    <vehicle id="ES_45" type="typeTurn" route="ES" depart="22" />
    <vehicle id="WE_46" type="typeStraight" route="WE" depart="23" />
    <vehicle id="ES_47" type="typeTurn" route="ES" depart="23" />
    <vehicle id="WN_48" type="typeTurn" route="WN" depart="24" />
    <vehicle id="WN_49" type="typeTurn" route="WN" depart="25" />
    <vehicle id="ES_50" type="typeTurn" route="ES" depart="25" />
    <vehicle id="NS_51" type="typeStraight" route="NS" depart="28" />
    <vehicle id="WE_52" type="typeStraight" route="WE" depart="28" />
    <vehicle id="EW_53" type="typeStraight" route="EW" depart="28" />
    <vehicle id="ES_54" type="typeTurn" route="ES" depart="28" />
    <vehicle id="SW_55" type="typeTurn" route="SW" depart="29" />
    <vehicle id="WN_56" type="typeTurn" route="WN" depart="29" />
    <vehicle id="WE_57" type="typeStraight" route="WE" depart="30" />
    <vehicle id="EW_58" type="typeStraight" route="EW" depart="30" />
    <vehicle id="WE_59" type="typeStraight" route="WE" depart="31" />
    <vehicle id="NS_60" type="typeStraight" route="NS" depart="32" />
    <vehicle id="ES_61" type="typeTurn" route="ES" depart="32" />
    <vehicle id="WN_62" type="typeTurn" route="WN" depart="33" />
    <vehicle id="ES_63" type="typeTurn" route="ES" depart="33" />
    <vehicle id="SW_64" type="typeTurn" route="SW" depart="34" />
    <vehicle id="WE_65" type="typeStraight" route="WE" depart="34" />
    <vehicle id="EW_66" type="typeStraight" route="EW" depart="34" />
    <vehicle id="ES_67" type="typeTurn" route="ES" depart="35" />
    <vehicle id="SN_68" type="typeStraight" route="SN" depart="36" />
    <vehicle id="WN_69" type="typeTurn" route="WN" depart="36" />
    <vehicle id="NE_70" type="typeTurn" route="NE" depart="37" />
    <vehicle id="SN_71" type="typeStraight" route="SN" depart="37" />
    <vehicle id="ES_72" type="typeTurn" route="ES" depart="38" />
    <vehicle id="NE_73" type="typeTurn" route="NE" depart="39" />
    <vehicle id="EW_74" type="typeStraight" route="EW" depart="39" />
    <vehicle id="WE_75" type="typeStraight" route="WE" depart="40" />
    <vehicle id="WN_76" type="typeTurn" route="WN" depart="41" />
    <vehicle id="WN_77" type="typeTurn" route="WN" depart="42" />
    <vehicle id="EW_78" type="typeStraight" route="EW" depart="42" />
    <vehicle id="ES_79" type="typeTurn" route="ES" depart="42" />
    <vehicle id="NE_80" type="typeTurn" route="NE" depart="44" />
    <vehicle id="WN_81" type="typeTurn" route="WN" depart="44" />
    <vehicle id="EW_82" type="typeStraight" route="EW" depart="44" />
    <vehicle id="EW_83" type="typeStraight" route="EW" depart="45" />
    <vehicle id="NS_84" type="typeStraight" route="NS" depart="46" />
    <vehicle id="ES_85" type="typeTurn" route="ES" depart="46" />
    <vehicle id="SN_86" type="typeStraight" route="SN" depart="49" />
    <vehicle id="WN_87" type="typeTurn" route="WN" depart="50" />
    <vehicle id="EW_88" type="typeStraight" route="EW" depart="50" />
    <vehicle id="WN_89" type="typeTurn" route="WN" depart="51" />
    <vehicle id="EW_90" type="typeStraight" route="EW" depart="51" />
    <vehicle id="ES_91" type="typeTurn" route="ES" depart="51" />
    <vehicle id="SW_92" type="typeTurn" route="SW" depart="52" />
    <vehicle id="EW_93" type="typeStraight" route="EW" depart="52" />
    <vehicle id="SW_94" type="typeTurn" route="SW" depart="53" />
    <vehicle id="EW_95" type="typeStraight" route="EW" depart="53" />
    <vehicle id="SW_96" type="typeTurn" route="SW" depart="54" />
    <vehicle id="WE_97" type="typeStraight" route="WE" depart="54" />
    <vehicle id="WN_98" type="typeTurn" route="WN" depart="56" />
    <vehicle id="EW_99" type="typeStraight" route="EW" depart="56" />
    <vehicle id="WE_100" type="typeStraight" route="WE" depart="57" />
    <vehicle id="WN_101" type="typeTurn" route="WN" depart="57" />
    <vehicle id="EW_102" type="typeStraight" route="EW" depart="57" />
    <vehicle id="WN_103" type="typeTurn" route="WN" depart="58" />
    <vehicle id="NE_104" type="typeTurn" route="NE" depart="60" />
    <vehicle id="WN_105" type="typeTurn" route="WN" depart="61" />
    <vehicle id="WN_106" type="typeTurn" route="WN" depart="62" />
    <vehicle id="NS_107" type="typeStraight" route="NS" depart="63" />
    <vehicle id="WE_108" type="typeStraight" route="WE" depart="63" />
    <vehicle id="EW_109" type="typeStraight" route="EW" depart="63" />
    <vehicle id="WE_110" type="typeStraight" route="WE" depart="64" />
    <vehicle id="WN_111" type="typeTurn" route="WN" depart="64" />
    <vehicle id="EW_112" type="typeStraight" route="EW" depart="64" />
    <vehicle id="ES_113" type="typeTurn" route="ES" depart="65" />
    <vehicle id="NS_114" type="typeStraight" route="NS" depart="66" />
    <vehicle id="WN_115" type="typeTurn" route="WN" depart="66" />
    <vehicle id="SW_116" type="typeTurn" route="SW" depart="67" />
    <vehicle id="EW_117" type="typeStraight" route="EW" depart="67" />
    <vehicle id="ES_118" type="typeTurn" route="ES" depart="67" />
    <vehicle id="WN_119" type="typeTurn" route="WN" depart="68" />
    <vehicle id="NS_120" type="typeStraight" route="NS" depart="69" />
    <vehicle id="WE_121" type="typeStraight" route="WE" depart="69" />
    <vehicle id="EW_122" type="typeStraight" route="EW" depart="70" />
    <vehicle id="EW_123" type="typeStraight" route="EW" depart="71" />
    <vehicle id="WE_124" type="typeStraight" route="WE" depart="72" />
    <vehicle id="ES_125" type="typeTurn" route="ES" depart="72" />
    <vehicle id="WN_126" type="typeTurn" route="WN" depart="73" />
    <vehicle id="ES_127" type="typeTurn" route="ES" depart="73" />
    <vehicle id="WN_128" type="typeTurn" route="WN" depart="74" />
    <vehicle id="EW_129" type="typeStraight" route="EW" depart="74" />
    <vehicle id="NS_130" type="typeStraight" route="NS" depart="75" />
    <vehicle id="NS_131" type="typeStraight" route="NS" depart="76" />
    <vehicle id="WE_132" type="typeStraight" route="WE" depart="77" />
    <vehicle id="WN_133" type="typeTurn" route="WN" depart="77" />
    <vehicle id="EW_134" type="typeStraight" route="EW" depart="77" />
    <vehicle id="ES_135" type="typeTurn" route="ES" depart="77" />
    <vehicle id="NE_136" type="typeTurn" route="NE" depart="79" />
    <vehicle id="WE_137" type="typeStraight" route="WE" depart="79" />
    <vehicle id="WN_138" type="typeTurn" route="WN" depart="79" />
    <vehicle id="ES_139" type="typeTurn" route="ES" depart="79" />
    <vehicle id="SW_140" type="typeTurn" route="SW" depart="81" />
    <vehicle id="NS_141" type="typeStraight" route="NS" depart="82" />
    <vehicle id="SN_142" type="typeStraight" route="SN" depart="82" />
    <vehicle id="ES_143" type="typeTurn" route="ES" depart="82" />
    <vehicle id="EW_144" type="typeStraight" route="EW" depart="84" />
    <vehicle id="ES_145" type="typeTurn" route="ES" depart="84" />
    <vehicle id="SW_146" type="typeTurn" route="SW" depart="85" />
    <vehicle id="WE_147" type="typeStraight" route="WE" depart="85" />
    <vehicle id="ES_148" type="typeTurn" route="ES" depart="85" />
    <vehicle id="ES_149" type="typeTurn" route="ES" depart="87" />
    <vehicle id="WE_150" type="typeStraight" route="WE" depart="88" />
    <vehicle id="WN_151" type="typeTurn" route="WN" depart="88" />
    <vehicle id="SW_152" type="typeTurn" route="SW" depart="89" />
    <vehicle id="WE_153" type="typeStraight" route="WE" depart="89" />
    <vehicle id="ES_154" type="typeTurn" route="ES" depart="89" />
    <vehicle id="NS_155" type="typeStraight" route="NS" depart="90" />
    <vehicle id="ES_156" type="typeTurn" route="ES" depart="90" />
    <vehicle id="NS_157" type="typeStraight" route="NS" depart="91" />
    <vehicle id="WN_158" type="typeTurn" route="WN" depart="91" />
    <vehicle id="NE_159" type="typeTurn" route="NE" depart="92" />
    <vehicle id="EW_160" type="typeStraight" route="EW" depart="94" />
    <vehicle id="NS_161" type="typeStraight" route="NS" depart="96" />
    <vehicle id="WE_162" type="typeStraight" route="WE" depart="96" />
    <vehicle id="ES_163" type="typeTurn" route="ES" depart="96" />
    <vehicle id="SW_164" type="typeTurn" route="SW" depart="97" />
    <vehicle id="WN_165" type="typeTurn" route="WN" depart="100" />
    <vehicle id="WE_166" type="typeStraight" route="WE" depart="101" />
    <vehicle id="ES_167" type="typeTurn" route="ES" depart="101" />
    <vehicle id="NE_168" type="typeTurn" route="NE" depart="102" />
    <vehicle id="SN_169" type="typeStraight" route="SN" depart="103" />
    <vehicle id="WN_170" type="typeTurn" route="WN" depart="104" />
    <vehicle id="SW_171" type="typeTurn" route="SW" depart="106" />
    <vehicle id="WE_172" type="typeStraight" route="WE" depart="106" />
    <vehicle id="SN_173" type="typeStraight" route="SN" depart="107" />
    <vehicle id="NS_174" type="typeStraight" route="NS" depart="108" />
    <vehicle id="WE_175" type="typeStraight" route="WE" depart="108" />
    <vehicle id="NE_176" type="typeTurn" route="NE" depart="109" />
    <vehicle id="WE_177" type="typeStraight" route="WE" depart="109" />
    <vehicle id="EW_178" type="typeStraight" route="EW" depart="109" />
    <vehicle id="SN_179" type="typeStraight" route="SN" depart="110" />
    <vehicle id="EW_180" type="typeStraight" route="EW" depart="110" />
    <vehicle id="WE_181" type="typeStraight" route="WE" depart="111" />
    <vehicle id="EW_182" type="typeStraight" route="EW" depart="111" />
    <vehicle id="WN_183" type="typeTurn" route="WN" depart="112" />
    <vehicle id="WE_184" type="typeStraight" route="WE" depart="113" />
    <vehicle id="NE_185" type="typeTurn" route="NE" depart="116" />
    <vehicle id="WE_186" type="typeStraight" route="WE" depart="116" />
    <vehicle id="WN_187" type="typeTurn" route="WN" depart="116" />
    <vehicle id="NE_188" type="typeTurn" route="NE" depart="118" />
    <vehicle id="WE_189" type="typeStraight" route="WE" depart="119" />
    <vehicle id="WE_190" type="typeStraight" route="WE" depart="120" />
    <vehicle id="WN_191" type="typeTurn" route="WN" depart="120" />
    <vehicle id="EW_192" type="typeStraight" route="EW" depart="120" />
    <vehicle id="SW_193" type="typeTurn" route="SW" depart="121" />
    <vehicle id="WE_194" type="typeStraight" route="WE" depart="122" />
    <vehicle id="EW_195" type="typeStraight" route="EW" depart="122" />
    <vehicle id="WN_196" type="typeTurn" route="WN" depart="123" />
    <vehicle id="ES_197" type="typeTurn" route="ES" depart="123" />
    <vehicle id="SW_198" type="typeTurn" route="SW" depart="124" />
    <vehicle id="NS_199" type="typeStraight" route="NS" depart="125" />
    <vehicle id="EW_200" type="typeStraight" route="EW" depart="125" />
    <vehicle id="ES_201" type="typeTurn" route="ES" depart="125" />
    <vehicle id="WN_202" type="typeTurn" route="WN" depart="126" />
    <vehicle id="ES_203" type="typeTurn" route="ES" depart="126" />
    <vehicle id="SN_204" type="typeStraight" route="SN" depart="127" />
    <vehicle id="WE_205" type="typeStraight" route="WE" depart="127" />
    <vehicle id="WN_206" type="typeTurn" route="WN" depart="127" />
    <vehicle id="SN_207" type="typeStraight" route="SN" depart="128" />
    <vehicle id="WE_208" type="typeStraight" route="WE" depart="128" />
    <vehicle id="WN_209" type="typeTurn" route="WN" depart="128" />
    <vehicle id="EW_210" type="typeStraight" route="EW" depart="128" />
    <vehicle id="ES_211" type="typeTurn" route="ES" depart="128" />
    <vehicle id="NE_212" type="typeTurn" route="NE" depart="129" />
    <vehicle id="SN_213" type="typeStraight" route="SN" depart="129" />
    <vehicle id="WE_214" type="typeStraight" route="WE" depart="129" />
    <vehicle id="EW_215" type="typeStraight" route="EW" depart="129" />
    <vehicle id="ES_216" type="typeTurn" route="ES" depart="129" />
    <vehicle id="EW_217" type="typeStraight" route="EW" depart="130" />
    <vehicle id="NE_218" type="typeTurn" route="NE" depart="131" />
    <vehicle id="ES_219" type="typeTurn" route="ES" depart="131" />
    <vehicle id="WN_220" type="typeTurn" route="WN" depart="132" />
    <vehicle id="EW_221" type="typeStraight" route="EW" depart="132" />
    <vehicle id="NS_222" type="typeStraight" route="NS" depart="133" />
    <vehicle id="NE_223" type="typeTurn" route="NE" depart="134" />
    <vehicle id="ES_224" type="typeTurn" route="ES" depart="134" />
    <vehicle id="WN_225" type="typeTurn" route="WN" depart="135" />
    <vehicle id="SW_226" type="typeTurn" route="SW" depart="136" />
    <vehicle id="WN_227" type="typeTurn" route="WN" depart="136" />
    <vehicle id="EW_228" type="typeStraight" route="EW" depart="136" />
    <vehicle id="WN_229" type="typeTurn" route="WN" depart="137" />
    <vehicle id="ES_230" type="typeTurn" route="ES" depart="138" />
    <vehicle id="SN_231" type="typeStraight" route="SN" depart="139" />
    <vehicle id="WN_232" type="typeTurn" route="WN" depart="140" />
    <vehicle id="WN_233" type="typeTurn" route="WN" depart="141" />
    <vehicle id="SW_234" type="typeTurn" route="SW" depart="142" />
    <vehicle id="WN_235" type="typeTurn" route="WN" depart="142" />
    <vehicle id="WE_236" type="typeStraight" route="WE" depart="143" />
    <vehicle id="WN_237" type="typeTurn" route="WN" depart="143" />
    <vehicle id="EW_238" type="typeStraight" route="EW" depart="143" />
    <vehicle id="WN_239" type="typeTurn" route="WN" depart="144" />
    <vehicle id="ES_240" type="typeTurn" route="ES" depart="144" />
    <vehicle id="WN_241" type="typeTurn" route="WN" depart="145" />
    <vehicle id="NS_242" type="typeStraight" route="NS" depart="146" />
    <vehicle id="WE_243" type="typeStraight" route="WE" depart="146" />
    <vehicle id="EW_244" type="typeStraight" route="EW" depart="146" />
    <vehicle id="EW_245" type="typeStraight" route="EW" depart="147" />
    <vehicle id="NS_246" type="typeStraight" route="NS" depart="148" />
    <vehicle id="NE_247" type="typeTurn" route="NE" depart="148" />
    <vehicle id="NS_248" type="typeStraight" route="NS" depart="149" />
    <vehicle id="NE_249" type="typeTurn" route="NE" depart="149" />
    <vehicle id="ES_250" type="typeTurn" route="ES" depart="149" />
    <vehicle id="SN_251" type="typeStraight" route="SN" depart="151" />
    <vehicle id="ES_252" type="typeTurn" route="ES" depart="152" />
    <vehicle id="WE_253" type="typeStraight" route="WE" depart="154" />
    <vehicle id="ES_254" type="typeTurn" route="ES" depart="154" />
    <vehicle id="NS_255" type="typeStraight" route="NS" depart="155" />
    <vehicle id="WE_256" type="typeStraight" route="WE" depart="155" />
    <vehicle id="EW_257" type="typeStraight" route="EW" depart="155" />
    <vehicle id="WE_258" type="typeStraight" route="WE" depart="157" />
    <vehicle id="WN_259" type="typeTurn" route="WN" depart="157" />
    <vehicle id="EW_260" type="typeStraight" route="EW" depart="157" />
    <vehicle id="WE_261" type="typeStraight" route="WE" depart="158" />
    <vehicle id="NS_262" type="typeStraight" route="NS" depart="160" />
    <vehicle id="NE_263" type="typeTurn" route="NE" depart="160" />
    <vehicle id="EW_264" type="typeStraight" route="EW" depart="163" />
    <vehicle id="ES_265" type="typeTurn" route="ES" depart="163" />
    <vehicle id="WE_266" type="typeStraight" route="WE" depart="164" />
    <vehicle id="EW_267" type="typeStraight" route="EW" depart="164" />
    <vehicle id="SN_268" type="typeStraight" route="SN" depart="165" />
    <vehicle id="WN_269" type="typeTurn" route="WN" depart="165" />
    <vehicle id="ES_270" type="typeTurn" route="ES" depart="165" />
    <vehicle id="ES_271" type="typeTurn" route="ES" depart="166" />
    <vehicle id="WN_272" type="typeTurn" route="WN" depart="168" />
    <vehicle id="WE_273" type="typeStraight" route="WE" depart="169" />
    <vehicle id="NS_274" type="typeStraight" route="NS" depart="170" />
    <vehicle id="WN_275" type="typeTurn" route="WN" depart="170" />
    <vehicle id="ES_276" type="typeTurn" route="ES" depart="170" />
    <vehicle id="WN_277" type="typeTurn" route="WN" depart="171" />
    <vehicle id="EW_278" type="typeStraight" route="EW" depart="171" />
    <vehicle id="SW_279" type="typeTurn" route="SW" depart="172" />
    <vehicle id="WE_280" type="typeStraight" route="WE" depart="173" />
    <vehicle id="ES_281" type="typeTurn" route="ES" depart="173" />
    <vehicle id="NS_282" type="typeStraight" route="NS" depart="174" />
    <vehicle id="EW_283" type="typeStraight" route="EW" depart="174" />
    <vehicle id="ES_284" type="typeTurn" route="ES" depart="174" />
    <vehicle id="NE_285" type="typeTurn" route="NE" depart="175" />
    <vehicle id="WN_286" type="typeTurn" route="WN" depart="175" />
    <vehicle id="NS_287" type="typeStraight" route="NS" depart="176" />
    <vehicle id="EW_288" type="typeStraight" route="EW" depart="176" />
    <vehicle id="NE_289" type="typeTurn" route="NE" depart="177" />
    <vehicle id="SW_290" type="typeTurn" route="SW" depart="177" />
    <vehicle id="WE_291" type="typeStraight" route="WE" depart="178" />
    <vehicle id="WN_292" type="typeTurn" route="WN" depart="178" />
    <vehicle id="WN_293" type="typeTurn" route="WN" depart="179" />
    <vehicle id="EW_294" type="typeStraight" route="EW" depart="180" />
    <vehicle id="SN_295" type="typeStraight" route="SN" depart="181" />
    <vehicle id="WE_296" type="typeStraight" route="WE" depart="181" />
    <vehicle id="NS_297" type="typeStraight" route="NS" depart="183" />
    <vehicle id="WN_298" type="typeTurn" route="WN" depart="184" />
    <vehicle id="SN_299" type="typeStraight" route="SN" depart="185" />
    <vehicle id="NE_300" type="typeTurn" route="NE" depart="186" />
    <vehicle id="WN_301" type="typeTurn" route="WN" depart="186" />
    <vehicle id="NS_302" type="typeStraight" route="NS" depart="187" />
    <vehicle id="EW_303" type="typeStraight" route="EW" depart="187" />
    <vehicle id="NE_304" type="typeTurn" route="NE" depart="188" />
    <vehicle id="SN_305" type="typeStraight" route="SN" depart="188" />
    <vehicle id="NE_306" type="typeTurn" route="NE" depart="190" />
    <vehicle id="EW_307" type="typeStraight" route="EW" depart="190" />
    <vehicle id="ES_308" type="typeTurn" route="ES" depart="190" />
    <vehicle id="WN_309" type="typeTurn" route="WN" depart="191" />
    <vehicle id="SN_310" type="typeStraight" route="SN" depart="192" />
    <vehicle id="ES_311" type="typeTurn" route="ES" depart="192" />
    <vehicle id="NS_312" type="typeStraight" route="NS" depart="194" />
    <vehicle id="WE_313" type="typeStraight" route="WE" depart="194" />
    <vehicle id="SN_314" type="typeStraight" route="SN" depart="195" />
    <vehicle id="NE_315" type="typeTurn" route="NE" depart="196" />
    <vehicle id="EW_316" type="typeStraight" route="EW" depart="197" />
    <vehicle id="ES_317" type="typeTurn" route="ES" depart="197" />
    <vehicle id="ES_318" type="typeTurn" route="ES" depart="199" />
    <vehicle id="NS_319" type="typeStraight" route="NS" depart="201" />
    <vehicle id="NE_320" type="typeTurn" route="NE" depart="201" />
    <vehicle id="ES_321" type="typeTurn" route="ES" depart="202" />
    <vehicle id="NS_322" type="typeStraight" route="NS" depart="203" />
    <vehicle id="NE_323" type="typeTurn" route="NE" depart="203" />
    <vehicle id="WE_324" type="typeStraight" route="WE" depart="203" />
    <vehicle id="SN_325" type="typeStraight" route="SN" depart="205" />
    <vehicle id="EW_326" type="typeStraight" route="EW" depart="205" />
    <vehicle id="NE_327" type="typeTurn" route="NE" depart="207" />
    <vehicle id="WN_328" type="typeTurn" route="WN" depart="207" />
    <vehicle id="ES_329" type="typeTurn" route="ES" depart="207" />
    <vehicle id="WN_330" type="typeTurn" route="WN" depart="209" />
    <vehicle id="ES_331" type="typeTurn" route="ES" depart="209" />
    <vehicle id="WN_332" type="typeTurn" route="WN" depart="210" />
    <vehicle id="WE_333" type="typeStraight" route="WE" depart="211" />
    <vehicle id="ES_334" type="typeTurn" route="ES" depart="211" />
    <vehicle id="NE_335" type="typeTurn" route="NE" depart="215" />
    <vehicle id="WN_336" type="typeTurn" route="WN" depart="216" />
    <vehicle id="ES_337" type="typeTurn" route="ES" depart="216" />
    <vehicle id="NE_338" type="typeTurn" route="NE" depart="217" />
    <vehicle id="SN_339" type="typeStraight" route="SN" depart="217" />
    <vehicle id="WE_340" type="typeStraight" route="WE" depart="217" />
    <vehicle id="SW_341" type="typeTurn" route="SW" depart="218" />
    <vehicle id="WE_342" type="typeStraight" route="WE" depart="218" />
    <vehicle id="WN_343" type="typeTurn" route="WN" depart="218" />
    <vehicle id="WE_344" type="typeStraight" route="WE" depart="220" />
    <vehicle id="EW_345" type="typeStraight" route="EW" depart="220" />
    <vehicle id="NE_346" type="typeTurn" route="NE" depart="222" />
    <vehicle id="WN_347" type="typeTurn" route="WN" depart="223" />
    <vehicle id="ES_348" type="typeTurn" route="ES" depart="223" />
    <vehicle id="EW_349" type="typeStraight" route="EW" depart="224" />
    <vehicle id="SN_350" type="typeStraight" route="SN" depart="225" />
    <vehicle id="WN_351" type="typeTurn" route="WN" depart="225" />
    <vehicle id="ES_352" type="typeTurn" route="ES" depart="225" />
    <vehicle id="EW_353" type="typeStraight" route="EW" depart="226" />
    <vehicle id="SW_354" type="typeTurn" route="SW" depart="227" />
    <vehicle id="WE_355" type="typeStraight" route="WE" depart="229" />
    <vehicle id="EW_356" type="typeStraight" route="EW" depart="229" />
    <vehicle id="ES_357" type="typeTurn" route="ES" depart="230" />
    <vehicle id="NS_358" type="typeStraight" route="NS" depart="231" />
    <vehicle id="WE_359" type="typeStraight" route="WE" depart="231" />
    <vehicle id="EW_360" type="typeStraight" route="EW" depart="232" />
    <vehicle id="WE_361" type="typeStraight" route="WE" depart="233" />
    <vehicle id="WN_362" type="typeTurn" route="WN" depart="233" />
    <vehicle id="SN_363" type="typeStraight" route="SN" depart="234" />
    <vehicle id="WN_364" type="typeTurn" route="WN" depart="234" />
    <vehicle id="EW_365" type="typeStraight" route="EW" depart="234" />
    <vehicle id="WN_366" type="typeTurn" route="WN" depart="235" />
    <vehicle id="ES_367" type="typeTurn" route="ES" depart="235" />
    <vehicle id="WE_368" type="typeStraight" route="WE" depart="237" />
    <vehicle id="ES_369" type="typeTurn" route="ES" depart="237" />
    <vehicle id="SN_370" type="typeStraight" route="SN" depart="238" />
    <vehicle id="WE_371" type="typeStraight" route="WE" depart="238" />
    <vehicle id="SW_372" type="typeTurn" route="SW" depart="239" />
    <vehicle id="WE_373" type="typeStraight" route="WE" depart="239" />
    <vehicle id="EW_374" type="typeStraight" route="EW" depart="239" />
    <vehicle id="WE_375" type="typeStraight" route="WE" depart="240" />
    <vehicle id="WE_376" type="typeStraight" route="WE" depart="241" />
    <vehicle id="EW_377" type="typeStraight" route="EW" depart="241" />
    <vehicle id="NE_378" type="typeTurn" route="NE" depart="242" />
    <vehicle id="SW_379" type="typeTurn" route="SW" depart="242" />
    <vehicle id="WE_380" type="typeStraight" route="WE" depart="244" />
    <vehicle id="NE_381" type="typeTurn" route="NE" depart="245" />
    <vehicle id="SN_382" type="typeStraight" route="SN" depart="245" />
    <vehicle id="WN_383" type="typeTurn" route="WN" depart="246" />
    <vehicle id="SN_384" type="typeStraight" route="SN" depart="247" />
    <vehicle id="WE_385" type="typeStraight" route="WE" depart="247" />
    <vehicle id="WN_386" type="typeTurn" route="WN" depart="247" />
    <vehicle id="NS_387" type="typeStraight" route="NS" depart="248" />
    <vehicle id="WE_388" type="typeStraight" route="WE" depart="248" />
    <vehicle id="EW_389" type="typeStraight" route="EW" depart="248" />
    <vehicle id="WE_390" type="typeStraight" route="WE" depart="250" />
    <vehicle id="WN_391" type="typeTurn" route="WN" depart="253" />
    <vehicle id="EW_392" type="typeStraight" route="EW" depart="253" />
    <vehicle id="ES_393" type="typeTurn" route="ES" depart="253" />
    <vehicle id="SW_394" type="typeTurn" route="SW" depart="254" />
    <vehicle id="WN_395" type="typeTurn" route="WN" depart="254" />
    <vehicle id="EW_396" type="typeStraight" route="EW" depart="254" />
    <vehicle id="SN_397" type="typeStraight" route="SN" depart="256" />
    <vehicle id="WN_398" type="typeTurn" route="WN" depart="256" />
    <vehicle id="WE_399" type="typeStraight" route="WE" depart="258" />
    <vehicle id="WE_400" type="typeStraight" route="WE" depart="259" />
    <vehicle id="WN_401" type="typeTurn" route="WN" depart="259" />
    <vehicle id="EW_402" type="typeStraight" route="EW" depart="259" />
    <vehicle id="EW_403" type="typeStraight" route="EW" depart="261" />
    <vehicle id="EW_404" type="typeStraight" route="EW" depart="262" />
    <vehicle id="ES_405" type="typeTurn" route="ES" depart="262" />
    <vehicle id="EW_406" type="typeStraight" route="EW" depart="263" />
    <vehicle id="NS_407" type="typeStraight" route="NS" depart="264" />
    <vehicle id="NS_408" type="typeStraight" route="NS" depart="265" />
    <vehicle id="SN_409" type="typeStraight" route="SN" depart="265" />
    <vehicle id="WE_410" type="typeStraight" route="WE" depart="265" />
    <vehicle id="EW_411" type="typeStraight" route="EW" depart="265" />
    <vehicle id="SW_412" type="typeTurn" route="SW" depart="266" />
    <vehicle id="WE_413" type="typeStraight" route="WE" depart="266" />
    <vehicle id="WN_414" type="typeTurn" route="WN" depart="266" />
    <vehicle id="EW_415" type="typeStraight" route="EW" depart="266" />
    <vehicle id="ES_416" type="typeTurn" route="ES" depart="267" />
    <vehicle id="WN_417" type="typeTurn" route="WN" depart="268" />
    <vehicle id="NS_418" type="typeStraight" route="NS" depart="269" />
    <vehicle id="NE_419" type="typeTurn" route="NE" depart="269" />
    <vehicle id="NS_420" type="typeStraight" route="NS" depart="270" />
    <vehicle id="SN_421" type="typeStraight" route="SN" depart="270" />
    <vehicle id="ES_422" type="typeTurn" route="ES" depart="270" />
    <vehicle id="NS_423" type="typeStraight" route="NS" depart="271" />