<routes>
        <vType id="typeStraight" accel="1" decel="4.5" sigma="0.5" length="5" minGap="2.5" maxSpeed="13.9" guiShape="passenger"/>
        <vType id="typeTurn" accel="1" decel="4.5" sigma="0.5" length="5" minGap="2.5" maxSpeed="13.9" guiShape="passenger"/>

        <route id="WE" edges="1i 2o" />
        <route id="EW" edges="2i 1o " />
        <route id="NS" edges="4i 3o " />
        <route id="SN" edges="3i 4o " />
        <route id="NE" edges="4i 2o" />
        <route id="ES" edges="2i 3o " />
        <route id="SW" edges="3i 1o " />
        <route id="WN" edges="1i 4o " />
    <vehicle id="NE_0" type="typeTurn" route="NE" depart="0" />
    <vehicle id="ES_1" type="typeTurn" route="ES" depart="0" />
    <vehicle id="NE_2" type="typeTurn" route="NE" depart="1" />
    <vehicle id="WE_3" type="typeStraight" route="WE" depart="1" />
    <vehicle id="WN_4" type="typeTurn" route="WN" depart="1" />
    <vehicle id="SW_5" type="typeTurn" route="SW" depart="2" />
    <vehicle id="ES_6" type="typeTurn" route="ES" depart="2" />
    <vehicle id="SN_7" type="typeStraight" route="SN" depart="3" />
    <vehicle id="SW_8" type="typeTurn" route="SW" depart="3" />
    <vehicle id="NE_9" type="typeTurn" route="NE" depart="5" />
    <vehicle id="WE_10" type="typeStraight" route="WE" depart="5" />
    <vehicle id="WN_11" type="typeTurn" route="WN" depart="5" />
    <vehicle id="EW_12" type="typeStraight" route="EW" depart="5" />
    <vehicle id="ES_13" type="typeTurn" route="ES" depart="5" />
    <vehicle id="WE_14" type="typeStraight" route="WE" depart="6" />
    <vehicle id="SW_15" type="typeTurn" route="SW" depart="8" />
    <vehicle id="WN_16" type="typeTurn" route="WN" depart="8" />
    <vehicle id="EW_17" type="typeStraight" route="EW" depart="8" />
    <vehicle id="EW_18" type="typeStraight" route="EW" depart="9" />
    <vehicle id="ES_19" type="typeTurn" route="ES" depart="9" />
    <vehicle id="WN_20" type="typeTurn" route="WN" depart="10" />
    <vehicle id="NS_21" type="typeStraight" route="NS" depart="11" />
    <vehicle id="NE_22" type="typeTurn" route="NE" depart="11" />
    <vehicle id="SN_23" type="typeStraight" route="SN" depart="11" />
    <vehicle id="EW_24" type="typeStraight" route="EW" depart="11" />
    <vehicle id="WE_25" type="typeStraight" route="WE" depart="12" />
    <vehicle id="SN_26" type="typeStraight" route="SN" depart="13" />
    <vehicle id="ES_27" type="typeTurn" route="ES" depart="13" />
    <vehicle id="WE_28" type="typeStraight" route="WE" depart="14" />
    <vehicle id="ES_29" type="typeTurn" route="ES" depart="14" />
    <vehicle id="WE_30" type="typeStraight" route="WE" depart="15" />
    <vehicle id="EW_31" type="typeStraight" route="EW" depart="15" />
    <vehicle id="SW_32" type="typeTurn" route="SW" depart="16" />
    <vehicle id="EW_33" type="typeStraight" route="EW" depart="16" />
    <vehicle id="NS_34" type="typeStraight" route="NS" depart="17" />
    <vehicle id="SW_35" type="typeTurn" route="SW" depart="17" />
    <vehicle id="EW_36" type="typeStraight" route="EW" depart="17" />
    <vehicle id="WE_37" type="typeStraight" route="WE" depart="18" />
    <vehicle id="SN_38" type="typeStraight" route="SN" depart="19" />
    <vehicle id="EW_39" type="typeStraight" route="EW" depart="19" />
    <vehicle id="ES_40" type="typeTurn" route="ES" depart="19" />
    <vehicle id="NS_41" type="typeStraight" route="NS" depart="20" />
    <vehicle id="WN_42" type="typeTurn" route="WN" depart="20" />
    <vehicle id="EW_43" type="typeStraight" route="EW" depart="20" />
    <vehicle id="NE_44" type="typeTurn" route="NE" depart="21" />
    <vehicle id="ES_45" type="typeTurn" route="ES" depart="21" />
    <vehicle id="NS_46" type="typeStraight" route="NS" depart="22" />
    <vehicle id="ES_47" type="typeTurn" route="ES" depart="22" />
    <vehicle id="WE_48" type="typeStraight" route="WE" depart="23" />
    <vehicle id="ES_49" type="typeTurn" route="ES" depart="23" />
    <vehicle id="WN_50" type="typeTurn" route="WN" depart="24" />
    <vehicle id="WN_51" type="typeTurn" route="WN" depart="25" />
    <vehicle id="ES_52" type="typeTurn" route="ES" depart="25" />
    <vehicle id="NS_53" type="typeStraight" route="NS" depart="28" />
    <vehicle id="WE_54" type="typeStraight" route="WE" depart="28" />
    <vehicle id="EW_55" type="typeStraight" route="EW" depart="28" />
    <vehicle id="ES_56" type="typeTurn" route="ES" depart="28" />
    <vehicle id="SW_57" type="typeTurn" route="SW" depart="29" />
    <vehicle id="WN_58" type="typeTurn" route="WN" depart="29" />
    <vehicle id="WE_59" type="typeStraight" route="WE" depart="30" />
    <vehicle id="EW_60" type="typeStraight" route="EW" depart="30" />
    <vehicle id="WE_61" type="typeStraight" route="WE" depart="31" />
    <vehicle id="NS_62" type="typeStraight" route="NS" depart="32" />
    <vehicle id="ES_63" type="typeTurn" route="ES" depart="32" />
    <vehicle id="WN_64" type="typeTurn" route="WN" depart="33" />
    <vehicle id="ES_65" type="typeTurn" route="ES" depart="33" />
    <vehicle id="SN_66" type="typeStraight" route="SN" depart="34" />
    <vehicle id="SW_67" type="typeTurn" route="SW" depart="34" />
    <vehicle id="WE_68" type="typeStraight" route="WE" depart="34" />
    <vehicle id="EW_69" type="typeStraight" route="EW" depart="34" />
    <vehicle id="ES_70" type="typeTurn" route="ES" depart="35" />
    <vehicle id="SN_71" type="typeStraight" route="SN" depart="36" />
    <vehicle id="WN_72" type="typeTurn" route="WN" depart="36" />
    <vehicle id="NE_73" type="typeTurn" route="NE" depart="37" />
    <vehicle id="SN_74" type="typeStraight" route="SN" depart="37" />
    <vehicle id="NS_75" type="typeStraight" route="NS" depart="38" />
    <vehicle id="NE_76" type="typeTurn" route="NE" depart="38" />
    <vehicle id="ES_77" type="typeTurn" route="ES" depart="38" />
    <vehicle id="NE_78" type="typeTurn" route="NE" depart="39" />
    <vehicle id="EW_79" type="typeStraight" route="EW" depart="39" />
    <vehicle id="WE_80" type="typeStraight" route="WE" depart="40" />
    <vehicle id="WN_81" type="typeTurn" route="WN" depart="41" />
    <vehicle id="WN_82" type="typeTurn" route="WN" depart="42" />
    <vehicle id="EW_83" type="typeStraight" route="EW" depart="42" />
    <vehicle id="ES_84" type="typeTurn" route="ES" depart="42" />
    <vehicle id="NE_85" type="typeTurn" route="NE" depart="44" />
    <vehicle id="WN_86" type="typeTurn" route="WN" depart="44" />
    <vehicle id="EW_87" type="typeStraight" route="EW" depart="44" />
    <vehicle id="EW_88" type="typeStraight" route="EW" depart="45" />
    <vehicle id="NS_89" type="typeStraight" route="NS" depart="46" />
    <vehicle id="ES_90" type="typeTurn" route="ES" depart="46" />
    <vehicle id="SN_91" type="typeStraight" route="SN" depart="48" />
    <vehicle id="SN_92" type="typeStraight" route="SN" depart="49" />
    <vehicle id="WN_93" type="typeTurn" route="WN" depart="50" />
    <vehicle id="EW_94" type="typeStraight" route="EW" depart="50" />
    <vehicle id="WN_95" type="typeTurn" route="WN" depart="51" />
    <vehicle id="EW_96" type="typeStraight" route="EW" depart="51" />
    <vehicle id="ES_97" type="typeTurn" route="ES" depart="51" />
    <vehicle id="SW_98" type="typeTurn" route="SW" depart="52" />
    <vehicle id="EW_99" type="typeStraight" route="EW" depart="52" />
    <vehicle id="SW_100" type="typeTurn" route="SW" depart="53" />
    <vehicle id="EW_101" type="typeStraight" route="EW" depart="53" />
    <vehicle id="SW_102" type="typeTurn" route="SW" depart="54" />
    <vehicle id="WE_103" type="typeStraight" route="WE" depart="54" />
    <vehicle id="WN_104" type="typeTurn" route="WN" depart="56" />
    <vehicle id="EW_105" type="typeStraight" route="EW" depart="56" />
    <vehicle id="WE_106" type="typeStraight" route="WE" depart="57" />
    <vehicle id="WN_107" type="typeTurn" route="WN" depart="57" />
    <vehicle id="EW_108" type="typeStraight" route="EW" depart="57" />
    <vehicle id="NE_109" type="typeTurn" route="NE" depart="58" />
    <vehicle id="WN_110" type="typeTurn" route="WN" depart="58" />
    <vehicle id="NE_111" type="typeTurn" route="NE" depart="60" />
    <vehicle id="WN_112" type="typeTurn" route="WN" depart="61" />
    <vehicle id="SW_113" type="typeTurn" route="SW" depart="62" />
    <vehicle id="WN_114" type="typeTurn" route="WN" depart="62" />
    <vehicle id="NS_115" type="typeStraight" route="NS" depart="63" />
    <vehicle id="SN_116" type="typeStraight" route="SN" depart="63" />
    <vehicle id="WE_117" type="typeStraight" route="WE" depart="63" />
    <vehicle id="EW_118" type="typeStraight" route="EW" depart="63" />
    <vehicle id="WE_119" type="typeStraight" route="WE" depart="64" />
    <vehicle id="WN_120" type="typeTurn" route="WN" depart="64" />
    <vehicle id="EW_121" type="typeStraight" route="EW" depart="64" />
    <vehicle id="ES_122" type="typeTurn" route="ES" depart="65" />
    <vehicle id="NS_123" type="typeStraight" route="NS" depart="66" />
    <vehicle id="SN_124" type="typeStraight" route="SN" depart="66" />
    <vehicle id="WN_125" type="typeTurn" route="WN" depart="66" />
    <vehicle id="SW_126" type="typeTurn" route="SW" depart="67" />
    <vehicle id="EW_127" type="typeStraight" route="EW" depart="67" />
    <vehicle id="ES_128" type="typeTurn" route="ES" depart="67" />
    <vehicle id="WN_129" type="typeTurn" route="WN" depart="68" />
    <vehicle id="NS_130" type="typeStraight" route="NS" depart="69" />
    <vehicle id="WE_131" type="typeStraight" route="WE" depart="69" />
    <vehicle id="EW_132" type="typeStraight" route="EW" depart="70" />
    <vehicle id="EW_133" type="typeStraight" route="EW" depart="71" />
    <vehicle id="WE_134" type="typeStraight" route="WE" depart="72" />
    <vehicle id="ES_135" type="typeTurn" route="ES" depart="72" />
    <vehicle id="WN_136" type="typeTurn" route="WN" depart="73" />
    <vehicle id="ES_137" type="typeTurn" route="ES" depart="73" />
    <vehicle id="WN_138" type="typeTurn" route="WN" depart="74" />
    <vehicle id="EW_139" type="typeStraight" route="EW" depart="74" />
    <vehicle id="NS_140" type="typeStraight" route="NS" depart="75" />
    <vehicle id="NS_141" type="typeStraight" route="NS" depart="76" />
    <vehicle id="WE_142" type="typeStraight" route="WE" depart="77" />
    <vehicle id="WN_143" type="typeTurn" route="WN" depart="77" />
    <vehicle id="EW_144" type="typeStraight" route="EW" depart="77" />
    <vehicle id="ES_145" type="typeTurn" route="ES" depart="77" />
    <vehicle id="NE_146" type="typeTurn" route="NE" depart="79" />
    <vehicle id="WE_147" type="typeStraight" route="WE" depart="79" />
    <vehicle id="WN_148" type="typeTurn" route="WN" depart="79" />
    <vehicle id="ES_149" type="typeTurn" route="ES" depart="79" />
    <vehicle id="SW_150" type="typeTurn" route="SW" depart="80" />
    <vehicle id="SW_151" type="typeTurn" route="SW" depart="81" />
    <vehicle id="NS_152" type="typeStraight" route="NS" depart="82" />
    <vehicle id="SN_153" type="typeStraight" route="SN" depart="82" />
    <vehicle id="SW_154" type="typeTurn" route="SW" depart="82" />
    <vehicle id="ES_155" type="typeTurn" route="ES" depart="82" />
    <vehicle id="EW_156" type="typeStraight" route="EW" depart="84" />
    <vehicle id="ES_157" type="typeTurn" route="ES" depart="84" />
    <vehicle id="SW_158" type="typeTurn" route="SW" depart="85" />
    <vehicle id="WE_159" type="typeStraight" route="WE" depart="85" />
    <vehicle id="ES_160" type="typeTurn" route="ES" depart="85" />
    <vehicle id="ES_161" type="typeTurn" route="ES" depart="87" />
    <vehicle id="WE_162" type="typeStraight" route="WE" depart="88" />
    <vehicle id="WN_163" type="typeTurn" route="WN" depart="88" />
    <vehicle id="SW_164" type="typeTurn" route="SW" depart="89" />
    <vehicle id="WE_165" type="typeStraight" route="WE" depart="89" />
    <vehicle id="ES_166" type="typeTurn" route="ES" depart="89" />
    <vehicle id="NS_167" type="typeStraight" route="NS" depart="90" />
    <vehicle id="ES_168" type="typeTurn" route="ES" depart="90" />
    <vehicle id="NS_169" type="typeStraight" route="NS" depart="91" />
    <vehicle id="WN_170" type="typeTurn" route="WN" depart="91" />
    <vehicle id="NE_171" type="typeTurn" route="NE" depart="92" />
    <vehicle id="EW_172" type="typeStraight" route="EW" depart="94" />
    <vehicle id="NS_173" type="typeStraight" route="NS" depart="96" />
    <vehicle id="WE_174" type="typeStraight" route="WE" depart="96" />
    <vehicle id="ES_175" type="typeTurn" route="ES" depart="96" />
    <vehicle id="SW_176" type="typeTurn" route="SW" depart="97" />
    <vehicle id="WN_177" type="typeTurn" route="WN" depart="100" />
    <vehicle id="WE_178" type="typeStraight" route="WE" depart="101" />
    <vehicle id="ES_179" type="typeTurn" route="ES" depart="101" />
    <vehicle id="NE_180" type="typeTurn" route="NE" depart="102" />
    <vehicle id="SN_181" type="typeStraight" route="SN" depart="103" />
    <vehicle id="WN_182" type="typeTurn" route="WN" depart="104" />
    <vehicle id="SW_183" type="typeTurn" route="SW" depart="106" />
    <vehicle id="WE_184" type="typeStraight" route="WE" depart="106" />
    <vehicle id="SN_185" type="typeStraight" route="SN" depart="107" />
    <vehicle id="NS_186" type="typeStraight" route="NS" depart="108" />
    <vehicle id="WE_187" type="typeStraight" route="WE" depart="108" />
    <vehicle id="NE_188" type="typeTurn" route="NE" depart="109" />
    <vehicle id="WE_189" type="typeStraight" route="WE" depart="109" />
    <vehicle id="EW_190" type="typeStraight" route="EW" depart="109" />
    <vehicle id="SN_191" type="typeStraight" route="SN" depart="110" />
    <vehicle id="EW_192" type="typeStraight" route="EW" depart="110" />
    <vehicle id="WE_193" type="typeStraight" route="WE" depart="111" />
    <vehicle id="EW_194" type="typeStraight" route="EW" depart="111" />
    <vehicle id="WN_195" type="typeTurn" route="WN" depart="112" />
    <vehicle id="WE_196" type="typeStraight" route="WE" depart="113" />
    <vehicle id="NE_197" type="typeTurn" route="NE" depart="116" />
    <vehicle id="WE_198" type="typeStraight" route="WE" depart="116" />
    <vehicle id="WN_199" type="typeTurn" route="WN" depart="116" />
    <vehicle id="NE_200" type="typeTurn" route="NE" depart="118" />
    <vehicle id="SW_201" type="typeTurn" route="SW" depart="118" />
    <vehicle id="WE_202" type="typeStraight" route="WE" depart="119" />
    <vehicle id="WE_203" type="typeStraight" route="WE" depart="120" />
    <vehicle id="WN_204" type="typeTurn" route="WN" depart="120" />
    <vehicle id="EW_205" type="typeStraight" route="EW" depart="120" />
    <vehicle id="SW_206" type="typeTurn" route="SW" depart="121" />
    <vehicle id="NS_207" type="typeStraight" route="NS" depart="122" />
    <vehicle id="WE_208" type="typeStraight" route="WE" depart="122" />
    <vehicle id="EW_209" type="typeStraight" route="EW" depart="122" />
    <vehicle id="WN_210" type="typeTurn" route="WN" depart="123" />
    <vehicle id="ES_211" type="typeTurn" route="ES" depart="123" />
    <vehicle id="SW_212" type="typeTurn" route="SW" depart="124" />
    <vehicle id="NS_213" type="typeStraight" route="NS" depart="125" />
    <vehicle id="EW_214" type="typeStraight" route="EW" depart="125" />
    <vehicle id="ES_215" type="typeTurn" route="ES" depart="125" />
    <vehicle id="WN_216" type="typeTurn" route="WN" depart="126" />
    <vehicle id="ES_217" type="typeTurn" route="ES" depart="126" />
    <vehicle id="NS_218" type="typeStraight" route="NS" depart="127" />
    <vehicle id="SN_219" type="typeStraight" route="SN" depart="127" />
    <vehicle id="WE_220" type="typeStraight" route="WE" depart="127" />
    <vehicle id="WN_221" type="typeTurn" route="WN" depart="127" />
    <vehicle id="NS_222" type="typeStraight" route="NS" depart="128" />
    <vehicle id="SN_223" type="typeStraight" route="SN" depart="128" />
    <vehicle id="WE_224" type="typeStraight" route="WE" depart="128" />
    <vehicle id="WN_225" type="typeTurn" route="WN" depart="128" />
    <vehicle id="EW_226" type="typeStraight" route="EW" depart="128" />
    <vehicle id="ES_227" type="typeTurn" route="ES" depart="128" />
    <vehicle id="NE_228" type="typeTurn" route="NE" depart="129" />
    <vehicle id="SN_229" type="typeStraight" route="SN" depart="129" />
    <vehicle id="WE_230" type="typeStraight" route="WE" depart="129" />
    <vehicle id="EW_231" type="typeStraight" route="EW" depart="129" />
    <vehicle id="ES_232" type="typeTurn" route="ES" depart="129" />
    <vehicle id="EW_233" type="typeStraight" route="EW" depart="130" />
    <vehicle id="NE_234" type="typeTurn" route="NE" depart="131" />
    <vehicle id="ES_235" type="typeTurn" route="ES" depart="131" />
    <vehicle id="WN_236" type="typeTurn" route="WN" depart="132" />
    <vehicle id="EW_237" type="typeStraight" route="EW" depart="132" />
    <vehicle id="NS_238" type="typeStraight" route="NS" depart="133" />
    <vehicle id="NE_239" type="typeTurn" route="NE" depart="134" />
    <vehicle id="ES_240" type="typeTurn" route="ES" depart="134" />
    <vehicle id="WN_241" type="typeTurn" route="WN" depart="135" />
    <vehicle id="SW_242" type="typeTurn" route="SW" depart="136" />
    <vehicle id="WN_243" type="typeTurn" route="WN" depart="136" />
    <vehicle id="EW_244" type="typeStraight" route="EW" depart="136" />
    <vehicle id="WN_245" type="typeTurn" route="WN" depart="137" />
    <vehicle id="ES_246" type="typeTurn" route="ES" depart="138" />
    <vehicle id="SN_247" type="typeStraight" route="SN" depart="139" />
    <vehicle id="WN_248" type="typeTurn" route="WN" depart="140" />
    <vehicle id="WN_249" type="typeTurn" route="WN" depart="141" />
    <vehicle id="NE_250" type="typeTurn" route="NE" depart="142" />
    <vehicle id="SW_251" type="typeTurn" route="SW" depart="142" />
    <vehicle id="WN_252" type="typeTurn" route="WN" depart="142" />
    <vehicle id="WE_253" type="typeStraight" route="WE" depart="143" />
    <vehicle id="WN_254" type="typeTurn" route="WN" depart="143" />
    <vehicle id="EW_255" type="typeStraight" route="EW" depart="143" />
    <vehicle id="WN_256" type="typeTurn" route="WN" depart="144" />
    <vehicle id="ES_257" type="typeTurn" route="ES" depart="144" />
    <vehicle id="WN_258" type="typeTurn" route="WN" depart="145" />
    <vehicle id="NS_259" type="typeStraight" route="NS" depart="146" />
    <vehicle id="SW_260" type="typeTurn" route="SW" depart="146" />
    <vehicle id="WE_261" type="typeStraight" route="WE" depart="146" />
    <vehicle id="EW_262" type="typeStraight" route="EW" depart="146" />
    <vehicle id="EW_263" type="typeStraight" route="EW" depart="147" />
    <vehicle id="NS_264" type="typeStraight" route="NS" depart="148" />
    <vehicle id="NE_265" type="typeTurn" route="NE" depart="148" />
    <vehicle id="NS_266" type="typeStraight" route="NS" depart="149" />
    <vehicle id="NE_267" type="typeTurn" route="NE" depart="149" />
    <vehicle id="ES_268" type="typeTurn" route="ES" depart="149" />
    <vehicle id="SN_269" type="typeStraight" route="SN" depart="151" />
    <vehicle id="SN_270" type="typeStraight" route="SN" depart="152" />
    <vehicle id="ES_271" type="typeTurn" route="ES" depart="152" />
    <vehicle id="WE_272" type="typeStraight" route="WE" depart="154" />
    <vehicle id="ES_273" type="typeTurn" route="ES" depart="154" />
    <vehicle id="NS_274" type="typeStraight" route="NS" depart="155" />
    <vehicle id="WE_275" type="typeStraight" route="WE" depart="155" />
    <vehicle id="EW_276" type="typeStraight" route="EW" depart="155" />
    <vehicle id="WE_277" type="typeStraight" route="WE" depart="157" />
    <vehicle id="WN_278" type="typeTurn" route="WN" depart="157" />
    <vehicle id="EW_279" type="typeStraight" route="EW" depart="157" />
    <vehicle id="WE_280" type="typeStraight" route="WE" depart="158" />
    <vehicle id="NS_281" type="typeStraight" route="NS" depart="160" />
    <vehicle id="NE_282" type="typeTurn" route="NE" depart="160" />
    <vehicle id="SN_283" type="typeStraight" route="SN" depart="161" />
    <vehicle id="EW_284" type="typeStraight" route="EW" depart="163" />
    <vehicle id="ES_285" type="typeTurn" route="ES" depart="163" />
    <vehicle id="SW_286" type="typeTurn" route="SW" depart="164" />
    <vehicle id="WE_287" type="typeStraight" route="WE" depart="164" />
    <vehicle id="EW_288" type="typeStraight" route="EW" depart="164" />
    <vehicle id="SN_289" type="typeStraight" route="SN" depart="165" />
    <vehicle id="WN_290" type="typeTurn" route="WN" depart="165" />
    <vehicle id="ES_291" type="typeTurn" route="ES" depart="165" />
    <vehicle id="ES_292" type="typeTurn" route="ES" depart="166" />
    <vehicle id="WN_293" type="typeTurn" route="WN" depart="168" />
    <vehicle id="SW_294" type="typeTurn" route="SW" depart="169" />
    <vehicle id="WE_295" type="typeStraight" route="WE" depart="169" />
    <vehicle id="NS_296" type="typeStraight" route="NS" depart="170" />
    <vehicle id="WN_297" type="typeTurn" route="WN" depart="170" />
    <vehicle id="ES_298" type="typeTurn" route="ES" depart="170" />
    <vehicle id="WN_299" type="typeTurn" route="WN" depart="171" />
    <vehicle id="EW_300" type="typeStraight" route="EW" depart="171" />
    <vehicle id="SW_301" type="typeTurn" route="SW" depart="172" />
    <vehicle id="NS_302" type="typeStraight" route="NS" depart="173" />
    <vehicle id="WE_303" type="typeStraight" route="WE" depart="173" />
    <vehicle id="ES_304" type="typeTurn" route="ES" depart="173" />
    <vehicle id="NS_305" type="typeStraight" route="NS" depart="174" />
    <vehicle id="EW_306" type="typeStraight" route="EW" depart="174" />
    <vehicle id="ES_307" type="typeTurn" route="ES" depart="174" />
    <vehicle id="NE_308" type="typeTurn" route="NE" depart="175" />
    <vehicle id="WN_309" type="typeTurn" route="WN" depart="175" />
    <vehicle id="NS_310" type="typeStraight" route="NS" depart="176" />
    <vehicle id="SW_311" type="typeTurn" route="SW" depart="176" />
    <vehicle id="EW_312" type="typeStraight" route="EW" depart="176" />
    <vehicle id="NE_313" type="typeTurn" route="NE" depart="177" />
    <vehicle id="SW_314" type="typeTurn" route="SW" depart="177" />
    <vehicle id="WE_315" type="typeStraight" route="WE" depart="178" />
    <vehicle id="WN_316" type="typeTurn" route="WN" depart="178" />
    <vehicle id="WN_317" type="typeTurn" route="WN" depart="179" />
    <vehicle id="EW_318" type="typeStraight" route="EW" depart="180" />
    <vehicle id="SN_319" type="typeStraight" route="SN" depart="181" />
    <vehicle id="WE_320" type="typeStraight" route="WE" depart="181" />
    <vehicle id="NS_321" type="typeStraight" route="NS" depart="183" />
    <vehicle id="WN_322" type="typeTurn" route="WN" depart="184" />
    <vehicle id="SN_323" type="typeStraight" route="SN" depart="185" />
    <vehicle id="NE_324" type="typeTurn" route="NE" depart="186" />
    <vehicle id="WN_325" type="typeTurn" route="WN" depart="186" />
    <vehicle id="NS_326" type="typeStraight" route="NS" depart="187" />
    <vehicle id="EW_327" type="typeStraight" route="EW" depart="187" />
    <vehicle id="NE_328" type="typeTurn" route="NE" depart="188" />
    <vehicle id="SN_329" type="typeStraight" route="SN" depart="188" />
    <vehicle id="NE_330" type="typeTurn" route="NE" depart="190" />
    <vehicle id="EW_331" type="typeStraight" route="EW" depart="190" />
    <vehicle id="ES_332" type="typeTurn" route="ES" depart="190" />
    <vehicle id="WN_333" type="typeTurn" route="WN" depart="191" />
    <vehicle id="SN_334" type="typeStraight" route="SN" depart="192" />
    <vehicle id="ES_335" type="typeTurn" route="ES" depart="192" />
    <vehicle id="NS_336" type="typeStraight" route="NS" depart="194" />
    <vehicle id="SN_337" type="typeStraight" route="SN" depart="194" />
    <vehicle id="WE_338" type="typeStraight" route="WE" depart="194" />
    <vehicle id="SN_339" type="typeStraight" route="SN" depart="195" />
    <vehicle id="NE_340" type="typeTurn" route="NE" depart="196" />
    <vehicle id="EW_341" type="typeStraight" route="EW" depart="197" />
    <vehicle id="ES_342" type="typeTurn" route="ES" depart="197" />
    <vehicle id="SW_343" type="typeTurn" route="SW" depart="199" />
    <vehicle id="ES_344" type="typeTurn" route="ES" depart="199" />
    <vehicle id="NS_345" type="typeStraight" route="NS" depart="201" />
    <vehicle id="NE_346" type="typeTurn" route="NE" depart="201" />
    <vehicle id="ES_347" type="typeTurn" route="ES" depart="202" />
    <vehicle id="NS_348" type="typeStraight" route="NS" depart="203" />
    <vehicle id="NE_349" type="typeTurn" route="NE" depart="203" />
    <vehicle id="WE_350" type="typeStraight" route="WE" depart="203" />
    <vehicle id="SW_351" type="typeTurn" route="SW" depart="204" />
    <vehicle id="SN_352" type="typeStraight" route="SN" depart="205" />
    <vehicle id="EW_353" type="typeStraight" route="EW" depart="205" />
    <vehicle id="NE_354" type="typeTurn" route="NE" depart="207" />
    <vehicle id="WN_355" type="typeTurn" route="WN" depart="207" />
    <vehicle id="ES_356" type="typeTurn" route="ES" depart="207" />
    <vehicle id="WN_357" type="typeTurn" route="WN" depart="209" />
    <vehicle id="ES_358" type="typeTurn" route="ES" depart="209" />
    <vehicle id="WN_359" type="typeTurn" route="WN" depart="210" />
    <vehicle id="WE_360" type="typeStraight" route="WE" depart="211" />
    <vehicle id="ES_361" type="typeTurn" route="ES" depart="211" />
    <vehicle id="NS_362" type="typeStraight" route="NS" depart="212" />
    <vehicle id="NE_363" type="typeTurn" route="NE" depart="215" />
    <vehicle id="WN_364" type="typeTurn" route="WN" depart="216" />
    <vehicle id="ES_365" type="typeTurn" route="ES" depart="216" />
    <vehicle id="NE_366" type="typeTurn" route="NE" depart="217" />
    <vehicle id="SN_367" type="typeStraight" route="SN" depart="217" />
    <vehicle id="WE_368" type="typeStraight" route="WE" depart="217" />
    <vehicle id="SW_369" type="typeTurn" route="SW" depart="218" />
    <vehicle id="WE_370" type="typeStraight" route="WE" depart="218" />
    <vehicle id="WN_371" type="typeTurn" route="WN" depart="218" />
    <vehicle id="WE_372" type="typeStraight" route="WE" depart="220" />
    <vehicle id="EW_373" type="typeStraight" route="EW" depart="220" />
    <vehicle id="NE_374" type="typeTurn" route="NE" depart="222" />
    <vehicle id="WN_375" type="typeTurn" route="WN" depart="223" />
    <vehicle id="ES_376" type="typeTurn" route="ES" depart="223" />
    <vehicle id="SW_377" type="typeTurn" route="SW" depart="224" />
    <vehicle id="EW_378" type="typeStraight" route="EW" depart="224" />
    <vehicle id="SN_379" type="typeStraight" route="SN" depart="225" />
    <vehicle id="WN_380" type="typeTurn" route="WN" depart="225" />
    <vehicle id="ES_381" type="typeTurn" route="ES" depart="225" />
    <vehicle id="EW_382" type="typeStraight" route="EW" depart="226" />
    <vehicle id="SW_383" type="typeTurn" route="SW" depart="227" />
    <vehicle id="WE_384" type="typeStraight" route="WE" depart="229" />
    <vehicle id="EW_385" type="typeStraight" route="EW" depart="229" />
    <vehicle id="ES_386" type="typeTurn" route="ES" depart="230" />
    <vehicle id="NS_387" type="typeStraight" route="NS" depart="231" />
    <vehicle id="WE_388" type="typeStraight" route="WE" depart="231" />
    <vehicle id="EW_389" type="typeStraight" route="EW" depart="232" />
    <vehicle id="NE_390" type="typeTurn" route="NE" depart="233" />
    <vehicle id="WE_391" type="typeStraight" route="WE" depart="233" />
    <vehicle id="WN_392" type="typeTurn" route="WN" depart="233" />
    <vehicle id="SN_393" type="typeStraight" route="SN" depart="234" />
    <vehicle id="WN_394" type="typeTurn" route="WN" depart="234" />
    <vehicle id="EW_395" type="typeStraight" route="EW" depart="234" />
    <vehicle id="WN_396" type="typeTurn" route="WN" depart="235" />
    <vehicle id="ES_397" type="typeTurn" route="ES" depart="235" />
    <vehicle id="SN_398" type="typeStraight" route="SN" depart="236" />
    <vehicle id="WE_399" type="typeStraight" route="WE" depart="237" />
    <vehicle id="ES_400" type="typeTurn" route="ES" depart="237" />
    <vehicle id="SN_401" type="typeStraight" route="SN" depart="238" />
    <vehicle id="WE_402" type="typeStraight" route="WE" depart="238" />
    <vehicle id="NS_403" type="typeStraight" route="NS" depart="239" />
    <vehicle id="SW_404" type="typeTurn" route="SW" depart="239" />
    <vehicle id="WE_405" type="typeStraight" route="WE" depart="239" />
    <vehicle id="EW_406" type="typeStraight" route="EW" depart="239" />
    <vehicle id="WE_407" type="typeStraight" route="WE" depart="240" />
    <vehicle id="WE_408" type="typeStraight" route="WE" depart="241" />
    <vehicle id="EW_409" type="typeStraight" route="EW" depart="241" />
    <vehicle id="NE_410" type="typeTurn" route="NE" depart="242" />
    <vehicle id="SW_411" type="typeTurn" route="SW" depart="242" />
    <vehicle id="WE_412" type="typeStraight" route="WE" depart="244" />
    <vehicle id="NE_413" type="typeTurn" route="NE" depart="245" />
    <vehicle id="SN_414" type="typeStraight" route="SN" depart="245" />
    <vehicle id="WN_415" type="typeTurn" route="WN" depart="246" />
    <vehicle id="SN_416" type="typeStraight" route="SN" depart="247" />
    <vehicle id="WE_417" type="typeStraight" route="WE" depart="247" />
    <vehicle id="WN_418" type="typeTurn" route="WN" depart="247" />
    <vehicle id="NS_419" type="typeStraight" route="NS" depart="248" />
    <vehicle id="WE_420" type="typeStraight" route="WE" depart="248" />
    <vehicle id="EW_421" type="typeStraight" route="EW" depart="248" />
    <vehicle id="NS_422" type="typeStraight" route="NS" depart="250" />
    <vehicle id="WE_423" type="typeStraight" route="WE" depart="250" />